24:0:0
     RDKit          3D

 43 46  0  0  1  0  0  0  0  0999 V2000
   34.3272   35.0195   21.1723 C   0  0  0  0  0  0  0  0  0  0  0  0
   33.9756   38.9531   23.8406 C   0  0  0  0  0  0  0  0  0  0  0  0
   34.7663   37.8212   21.5430 C   0  0  0  0  0  0  0  0  0  0  0  0
   35.1740   37.1595   20.3095 C   0  0  0  0  0  0  0  0  0  0  0  0
   34.1472   37.0528   22.5499 C   0  0  0  0  0  0  0  0  0  0  0  0
   34.9507   39.1944   21.7975 C   0  0  0  0  0  0  0  0  0  0  0  0
   34.9789   35.8324   20.1419 C   0  0  0  0  0  0  0  0  0  0  0  0
   33.2486   34.8983   23.3738 C   0  0  0  0  0  0  0  0  0  0  0  0
   34.5489   39.7632   22.9534 N   0  0  0  0  0  0  0  0  0  0  0  0
   34.1482   33.8138   20.9983 O   0  0  0  0  0  0  0  0  0  0  0  0
   33.9366   35.6556   22.3151 N   0  0  0  0  0  0  0  0  0  0  0  0
   33.7639   37.6471   23.7008 N   0  0  0  0  0  0  0  0  0  0  0  0
   33.5497   39.5497   25.0048 N   0  0  0  0  0  0  0  0  0  0  0  0
   35.6225   37.7739   19.5418 H   0  0  0  0  0  0  0  0  0  0  0  0
   35.4201   39.8429   21.0741 H   0  0  0  0  0  0  0  0  0  0  0  0
   32.2596   35.3221   23.5519 H   0  0  0  0  0  0  0  0  0  0  0  0
   33.1070   33.8367   23.1664 H   0  0  0  0  0  0  0  0  0  0  0  0
   33.8118   34.9654   24.3056 H   0  0  0  0  0  0  0  0  0  0  0  0
   33.7533   40.5374   25.1097 H   0  0  0  0  0  0  0  0  0  0  0  0
   33.1178   38.8416   26.2010 C   0  0  0  0  0  0  0  0  0  0  0  0
   32.3138   39.7362   27.1405 C   0  0  0  0  0  0  0  0  0  0  0  0
   33.1200   39.7404   28.4368 C   0  0  0  0  0  0  0  0  0  0  0  0
   33.8314   38.5146   28.3905 O   0  0  0  0  0  0  0  0  0  0  0  0
   34.2978   38.3700   27.0584 C   0  0  0  0  0  0  0  0  0  0  0  0
   32.4971   37.9876   25.9270 H   0  0  0  0  0  0  0  0  0  0  0  0
   32.1536   40.7462   26.7598 H   0  0  0  0  0  0  0  0  0  0  0  0
   31.3327   39.2910   27.3134 H   0  0  0  0  0  0  0  0  0  0  0  0
   33.8268   40.5718   28.4456 H   0  0  0  0  0  0  0  0  0  0  0  0
   32.4931   39.8164   29.3245 H   0  0  0  0  0  0  0  0  0  0  0  0
   34.5936   37.3429   26.8388 H   0  0  0  0  0  0  0  0  0  0  0  0
   35.1720   39.0084   26.9219 H   0  0  0  0  0  0  0  0  0  0  0  0
   35.3033   35.1548   18.9919 O   0  0  0  0  0  0  0  0  0  0  0  0
   37.8219   36.5802   15.9723 C   0  0  0  0  0  0  0  0  0  0  0  0
   38.3589   36.3493   17.2573 C   0  0  0  0  0  0  0  0  0  0  0  0
   37.5045   35.9911   18.3192 C   0  0  0  0  0  0  0  0  0  0  0  0
   36.1528   35.6732   18.0500 C   0  0  0  0  0  0  0  0  0  0  0  0
   35.6844   35.7465   16.7307 C   0  0  0  0  0  0  0  0  0  0  0  0
   36.4813   36.2798   15.7078 C   0  0  0  0  0  0  0  0  0  0  0  0
   38.5612   37.1500   15.0023 F   0  0  0  0  0  0  0  0  0  0  0  0
   39.3916   36.5924   17.4609 H   0  0  0  0  0  0  0  0  0  0  0  0
   37.9881   35.9357   19.5813 F   0  0  0  0  0  0  0  0  0  0  0  0
   34.6610   35.4720   16.5174 H   0  0  0  0  0  0  0  0  0  0  0  0
   36.0744   36.4512   14.7201 H   0  0  0  0  0  0  0  0  0  0  0  0
  1  7  1  0
  1 10  2  0
  1 11  1  0
  2  9  1  0
  2 12  2  0
  2 13  1  0
  3  4  1  0
  3  5  2  0
  3  6  1  0
  4  7  2  0
  4 14  1  0
  5 11  1  0
  5 12  1  0
  6  9  2  0
  6 15  1  0
  7 32  1  0
  8 11  1  0
  8 16  1  0
  8 17  1  0
  8 18  1  0
 13 19  1  0
 13 20  1  0
 20 21  1  0
 20 24  1  0
 20 25  1  0
 21 22  1  0
 21 26  1  0
 21 27  1  0
 22 23  1  0
 22 28  1  0
 22 29  1  0
 23 24  1  0
 24 30  1  0
 24 31  1  0
 32 36  1  0
 33 34  2  0
 33 38  1  0
 33 39  1  0
 34 35  1  0
 34 40  1  0
 35 36  2  0
 35 41  1  0
 36 37  1  0
 37 38  2  0
 37 42  1  0
 38 43  1  0
M  END
>  <s_m_entry_id>  (1) 
842

>  <s_m_Source_Path>  (1) 
/projects/mai/users/kmzp800_harry/pmx_colab/docking_jobs/p38/glide-dock_SP_p38_mcs_docking_2

>  <s_m_Source_File>  (1) 
glide-dock_SP_p38_mcs_docking_2_pv.maegz

>  <i_m_Source_File_Index>  (1) 
26

>  <s_pdb_PDB_TITLE>  (1) 
MX MODEL

>  <r_i_docking_score>  (1) 
-7.03366946488616

>  <r_i_glide_gscore>  (1) 
-7.03366946488616

>  <r_i_glide_emodel>  (1) 
-40.1414185583568

>  <index_string>  (1) 
24:0:0

$$$$
