12:0:0
     RDKit          3D

 60 63  0  0  1  0  0  0  0  0999 V2000
   39.1937   17.5334   12.6836 O   0  0  0  0  0  0  0  0  0  0  0  0
   40.3575   17.0678   12.6799 C   0  0  0  0  0  0  0  0  0  0  0  0
   41.2104   17.3019   11.7979 O   0  0  0  0  0  0  0  0  0  0  0  0
   40.7493   16.1321   13.8285 C   0  0  0  0  0  0  0  0  0  0  0  0
   42.1110   15.7243   13.7307 O   0  0  0  0  0  0  0  0  0  0  0  0
   42.5181   14.9111   14.7313 C   0  0  0  0  0  0  0  0  0  0  0  0
   42.1575   13.5393   14.8484 C   0  0  0  0  0  0  0  0  0  0  0  0
   42.6201   12.9385   15.9864 C   0  0  0  0  0  0  0  0  0  0  0  0
   42.3497   11.5906   16.4663 C   0  0  0  0  0  0  0  0  0  0  0  0
   43.3796   10.7596   16.9543 C   0  0  0  0  0  0  0  0  0  0  0  0
   43.1055    9.4639   17.3932 C   0  0  0  0  0  0  0  0  0  0  0  0
   41.7884    8.9665   17.3592 C   0  0  0  0  0  0  0  0  0  0  0  0
   40.7490    9.7654   16.8266 C   0  0  0  0  0  0  0  0  0  0  0  0
   39.4211    9.3226   16.7163 N   0  0  0  0  0  0  0  0  0  0  0  0
   39.0458    7.9556   17.0331 C   0  0  0  0  0  0  0  0  0  0  0  0
   37.6055    7.6796   16.5815 C   0  0  0  0  0  0  0  0  0  0  0  0
   37.1706    6.2296   16.8787 C   0  0  0  0  0  0  0  0  0  0  0  0
   38.1488    5.2252   16.4155 N   0  0  0  0  0  0  0  0  0  0  0  0
   37.7610    4.0385   15.2070 S   0  0  0  0  0  0  0  0  0  0  0  0
   38.5482    2.8324   15.5053 O   0  0  0  0  0  0  0  0  0  0  0  0
   36.2964    3.9577   15.1247 O   0  0  0  0  0  0  0  0  0  0  0  0
   38.4032    4.7531   13.6301 C   0  0  0  0  0  0  0  0  0  0  0  0
   37.7667    4.0398   12.4469 C   0  0  0  0  0  0  0  0  0  0  0  0
   38.1640    2.7258   12.1091 C   0  0  0  0  0  0  0  0  0  0  0  0
   37.5705    2.0652   11.0148 C   0  0  0  0  0  0  0  0  0  0  0  0
   36.5809    2.7152   10.2506 C   0  0  0  0  0  0  0  0  0  0  0  0
   36.1841    4.0233   10.5857 C   0  0  0  0  0  0  0  0  0  0  0  0
   36.7733    4.6838   11.6808 C   0  0  0  0  0  0  0  0  0  0  0  0
   39.5441    5.4895   16.7394 C   0  0  0  0  0  0  0  0  0  0  0  0
   39.9225    6.8987   16.3180 C   0  0  0  0  0  0  0  0  0  0  0  0
   41.0361   11.0771   16.4183 C   0  0  0  0  0  0  0  0  0  0  0  0
   43.6327   14.0178   16.8939 S   0  0  0  0  0  0  0  0  0  0  0  0
   43.3471   15.3091   15.7480 C   0  0  0  0  0  0  0  0  0  0  0  0
   44.0084   16.5902   16.0345 C   0  0  0  0  0  0  0  0  0  0  0  0
   43.8372   17.5529   15.2583 O   0  0  0  0  0  0  0  0  0  0  0  0
   44.7445   16.6865   17.0396 O   0  0  0  0  0  0  0  0  0  0  0  0
   40.5563   16.6312   14.7799 H   0  0  0  0  0  0  0  0  0  0  0  0
   40.1089   15.2515   13.7746 H   0  0  0  0  0  0  0  0  0  0  0  0
   44.3945   11.1332   17.0015 H   0  0  0  0  0  0  0  0  0  0  0  0
   43.8869    8.8463   17.8053 H   0  0  0  0  0  0  0  0  0  0  0  0
   41.6495    8.0262   17.8808 H   0  0  0  0  0  0  0  0  0  0  0  0
   38.6973   10.0211   16.6256 H   0  0  0  0  0  0  0  0  0  0  0  0
   39.1075    7.8737   18.1217 H   0  0  0  0  0  0  0  0  0  0  0  0
   36.9098    8.3740   17.0588 H   0  0  0  0  0  0  0  0  0  0  0  0
   37.5208    7.8636   15.5061 H   0  0  0  0  0  0  0  0  0  0  0  0
   37.0441    6.0943   17.9536 H   0  0  0  0  0  0  0  0  0  0  0  0
   36.2031    6.0345   16.4271 H   0  0  0  0  0  0  0  0  0  0  0  0
   38.1687    5.8149   13.6089 H   0  0  0  0  0  0  0  0  0  0  0  0
   39.4882    4.6400   13.6058 H   0  0  0  0  0  0  0  0  0  0  0  0
   38.9218    2.2204   12.6886 H   0  0  0  0  0  0  0  0  0  0  0  0
   37.8733    1.0599   10.7610 H   0  0  0  0  0  0  0  0  0  0  0  0
   36.1250    2.2043    9.4150 H   0  0  0  0  0  0  0  0  0  0  0  0
   35.4210    4.5170   10.0036 H   0  0  0  0  0  0  0  0  0  0  0  0
   36.4625    5.6878   11.9301 H   0  0  0  0  0  0  0  0  0  0  0  0
   39.7284    5.3388   17.8091 H   0  0  0  0  0  0  0  0  0  0  0  0
   40.1725    4.7840   16.2069 H   0  0  0  0  0  0  0  0  0  0  0  0
   39.8899    7.0559   15.2430 H   0  0  0  0  0  0  0  0  0  0  0  0
   40.9800    6.9149   16.5004 H   0  0  0  0  0  0  0  0  0  0  0  0
   40.2370   11.7184   16.0668 H   0  0  0  0  0  0  0  0  0  0  0  0
   41.5633   13.0376   14.0985 H   0  0  0  0  0  0  0  0  0  0  0  0
  1  2  2  0
  2  3  1  0
  2  4  1  0
  4  5  1  0
  4 37  1  0
  4 38  1  0
  5  6  1  0
  6  7  1  0
  6 33  2  0
  7  8  2  0
  7 60  1  0
  8  9  1  0
  8 32  1  0
  9 10  2  0
  9 31  1  0
 10 11  1  0
 10 39  1  0
 11 12  2  0
 11 40  1  0
 12 13  1  0
 12 41  1  0
 13 14  1  0
 13 31  2  0
 14 15  1  0
 14 42  1  0
 15 16  1  0
 15 30  1  0
 15 43  1  0
 16 17  1  0
 16 44  1  0
 16 45  1  0
 17 18  1  0
 17 46  1  0
 17 47  1  0
 18 19  1  0
 18 29  1  0
 19 20  2  0
 19 21  2  0
 19 22  1  0
 22 23  1  0
 22 48  1  0
 22 49  1  0
 23 24  2  0
 23 28  1  0
 24 25  1  0
 24 50  1  0
 25 26  2  0
 25 51  1  0
 26 27  1  0
 26 52  1  0
 27 28  2  0
 27 53  1  0
 28 54  1  0
 29 30  1  0
 29 55  1  0
 29 56  1  0
 30 57  1  0
 30 58  1  0
 31 59  1  0
 32 33  1  0
 33 34  1  0
 34 35  2  0
 34 36  1  0
M  CHG  2   3  -1  36  -1
M  END
>  <s_m_entry_id>  (1) 
529

>  <s_m_Source_Path>  (1) 
/projects/mai/users/kmzp800_harry/pmx_colab/docking_jobs/ptp1b/glide-dock_SP_ptp1b_mcs_2

>  <s_m_Source_File>  (1) 
glide-dock_SP_ptp1b_mcs_2_pv.maegz

>  <i_m_Source_File_Index>  (1) 
14

>  <r_i_docking_score>  (1) 
-6.70652859684747

>  <r_i_glide_gscore>  (1) 
-6.70652859684747

>  <r_i_glide_emodel>  (1) 
-96.2676689207725

>  <index_string>  (1) 
12:0:0

$$$$
