17:0:0
     RDKit          3D

 47 51  0  0  1  0  0  0  0  0999 V2000
   -4.5346   -3.2156   15.4947 C   0  0  0  0  0  0  0  0  0  0  0  0
   -3.8888   -2.2527   14.6728 O   0  0  0  0  0  0  0  0  0  0  0  0
   -2.5327   -2.0667   14.8214 C   0  0  0  0  0  0  0  0  0  0  0  0
   -1.7430   -2.8265   15.7099 C   0  0  0  0  0  0  0  0  0  0  0  0
   -0.3692   -2.5861   15.8174 C   0  0  0  0  0  0  0  0  0  0  0  0
    0.2447   -1.5643   15.0745 C   0  0  0  0  0  0  0  0  0  0  0  0
    1.6149   -1.3529   15.2932 N   0  0  0  0  0  0  0  0  0  0  0  0
    2.5243   -0.4312   14.7283 C   0  0  0  0  0  0  0  0  0  0  0  0
    2.1873    0.3768   13.7583 N   0  0  0  0  0  0  0  0  0  0  0  0
    3.1144    1.2540   13.2257 C   0  0  0  0  0  0  0  0  0  0  0  0
    4.4145    1.2873   13.6816 C   0  0  0  0  0  0  0  0  0  0  0  0
    4.7497    0.4933   14.7281 N   0  0  0  0  0  0  0  0  0  0  0  0
    5.9008    0.3855   15.4821 C   0  0  0  0  0  0  0  0  0  0  0  0
    5.6100   -0.4987   16.4907 C   0  0  0  0  0  0  0  0  0  0  0  0
    4.3628   -1.0584   16.3292 N   0  0  0  0  0  0  0  0  0  0  0  0
    3.8289   -0.4133   15.2989 C   0  0  0  0  0  0  0  0  0  0  0  0
    2.6452    2.1665   12.1515 C   0  0  0  0  0  0  0  0  0  0  0  0
    3.5598    2.6656   11.1826 C   0  0  0  0  0  0  0  0  0  0  0  0
    3.1603    3.4973   10.1238 C   0  0  0  0  0  0  0  0  0  0  0  0
    1.8065    3.8686   10.0243 C   0  0  0  0  0  0  0  0  0  0  0  0
    1.1586    4.6475    9.0846 N   0  0  0  0  0  0  0  0  0  0  0  0
   -0.0940    4.6218    9.5258 C   0  0  0  0  0  0  0  0  0  0  0  0
   -0.3209    3.9296   10.6420 N   0  0  0  0  0  0  0  0  0  0  0  0
    0.8922    3.3939   11.0174 C   0  0  0  0  0  0  0  0  0  0  0  0
    1.2902    2.5560   12.0688 C   0  0  0  0  0  0  0  0  0  0  0  0
   -0.5403   -0.8078   14.1817 C   0  0  0  0  0  0  0  0  0  0  0  0
   -1.9243   -1.0546   14.0427 C   0  0  0  0  0  0  0  0  0  0  0  0
   -2.7379   -0.3191   13.2031 O   0  0  0  0  0  0  0  0  0  0  0  0
   -2.1783    0.7032   12.3845 C   0  0  0  0  0  0  0  0  0  0  0  0
   -5.5964   -3.2369   15.2510 H   0  0  0  0  0  0  0  0  0  0  0  0
   -4.4447   -2.9634   16.5524 H   0  0  0  0  0  0  0  0  0  0  0  0
   -4.1391   -4.2181   15.3271 H   0  0  0  0  0  0  0  0  0  0  0  0
   -2.1641   -3.6008   16.3254 H   0  0  0  0  0  0  0  0  0  0  0  0
    0.2130   -3.1953   16.4883 H   0  0  0  0  0  0  0  0  0  0  0  0
    2.0612   -2.0220   15.9132 H   0  0  0  0  0  0  0  0  0  0  0  0
    5.1929    1.9323   13.2894 H   0  0  0  0  0  0  0  0  0  0  0  0
    6.7685    0.9786   15.2286 H   0  0  0  0  0  0  0  0  0  0  0  0
    6.1810   -0.7667   17.3462 H   0  0  0  0  0  0  0  0  0  0  0  0
    4.5983    2.3888   11.2346 H   0  0  0  0  0  0  0  0  0  0  0  0
    3.8873    3.8394    9.3998 H   0  0  0  0  0  0  0  0  0  0  0  0
   -0.9004    5.1226    9.0226 H   0  0  0  0  0  0  0  0  0  0  0  0
   -1.2165    3.8499   11.0861 H   0  0  0  0  0  0  0  0  0  0  0  0
    0.5762    2.1928   12.7983 H   0  0  0  0  0  0  0  0  0  0  0  0
   -0.0817   -0.0230   13.6126 H   0  0  0  0  0  0  0  0  0  0  0  0
   -2.9658    1.1179   11.7520 H   0  0  0  0  0  0  0  0  0  0  0  0
   -1.7766    1.5212   12.9831 H   0  0  0  0  0  0  0  0  0  0  0  0
   -1.4010    0.3164   11.7255 H   0  0  0  0  0  0  0  0  0  0  0  0
  1  2  1  0
  1 30  1  0
  1 31  1  0
  1 32  1  0
  2  3  1  0
  3  4  2  0
  3 27  1  0
  4  5  1  0
  4 33  1  0
  5  6  2  0
  5 34  1  0
  6  7  1  0
  6 26  1  0
  7  8  1  0
  7 35  1  0
  8  9  2  0
  8 16  1  0
  9 10  1  0
 10 11  2  0
 10 17  1  0
 11 12  1  0
 11 36  1  0
 12 13  1  0
 12 16  1  0
 13 14  2  0
 13 37  1  0
 14 15  1  0
 14 38  1  0
 15 16  2  0
 17 18  2  0
 17 25  1  0
 18 19  1  0
 18 39  1  0
 19 20  2  0
 19 40  1  0
 20 21  1  0
 20 24  1  0
 21 22  2  0
 22 23  1  0
 22 41  1  0
 23 24  1  0
 23 42  1  0
 24 25  2  0
 25 43  1  0
 26 27  2  0
 26 44  1  0
 27 28  1  0
 28 29  1  0
 29 45  1  0
 29 46  1  0
 29 47  1  0
M  END
>  <s_m_entry_id>  (1) 
1100

>  <IC50[nM]>  (1) 
6.3

>  <s_m_Source_Path>  (1) 
/projects/mai/users/kmzp800_harry/pmx_colab/docking_jobs/syk

>  <s_m_Source_File>  (1) 
tnks2_lig.sdf

>  <i_m_Source_File_Index>  (1) 
19

>  <s_m_job_name>  (1) 
glide-dock_SP_syk_mcs

>  <r_i_docking_score>  (1) 
-6.84076254840403

>  <r_i_glide_gscore>  (1) 
-6.84076254840403

>  <r_i_glide_emodel>  (1) 
-46.8532549338364

>  <index_string>  (1) 
17:0:0

$$$$
