8:0:0
     RDKit          3D

 41 43  0  0  1  0  0  0  0  0999 V2000
   41.9950   11.5120   16.2560 C   0  0  0  0  0  0  0  0  0  0  0  0
   43.2120   10.9240   16.6120 C   0  0  0  0  0  0  0  0  0  0  0  0
   43.2600    9.5880   17.0140 C   0  0  0  0  0  0  0  0  0  0  0  0
   42.0850    8.8330   17.0660 C   0  0  0  0  0  0  0  0  0  0  0  0
   40.8520    9.4060   16.7250 C   0  0  0  0  0  0  0  0  0  0  0  0
   40.8200   10.7460   16.3160 C   0  0  0  0  0  0  0  0  0  0  0  0
   39.6220    8.5790   16.7760 C   0  0  0  0  0  0  0  0  0  0  0  0
   38.6150    8.4810   18.1230 S   0  0  0  0  0  0  0  0  0  0  0  0
   37.4880    7.4170   17.4780 C   0  0  0  0  0  0  0  0  0  0  0  0
   37.8970    7.1030   16.1730 C   0  0  0  0  0  0  0  0  0  0  0  0
   39.0700    7.7660   15.7750 C   0  0  0  0  0  0  0  0  0  0  0  0
   39.7780    7.5370   14.0080 Br  0  0  0  0  0  0  0  0  0  0  0  0
   36.2470    7.0390   18.1710 C   0  0  0  0  0  0  0  0  0  0  0  0
   35.4420    7.9130   18.5850 O   0  0  0  0  0  0  0  0  0  0  0  0
   35.9860    5.6990   18.4330 O   0  0  0  0  0  0  0  0  0  0  0  0
   37.2510    6.2070   15.3120 O   0  0  0  0  0  0  0  0  0  0  0  0
   35.9240    6.3940   14.8360 C   0  0  0  0  0  0  0  0  0  0  0  0
   35.9420    6.9340   13.4470 C   0  0  0  0  0  0  0  0  0  0  0  0
   35.9200    6.1470   12.4660 O   0  0  0  0  0  0  0  0  0  0  0  0
   35.9380    8.3050   13.2360 O   0  0  0  0  0  0  0  0  0  0  0  0
   41.5020   13.4140   14.6050 C   0  0  0  0  0  0  0  0  0  0  0  0
   41.0890   12.6430   13.6980 O   0  0  0  0  0  0  0  0  0  0  0  0
   41.9880   12.8870   15.8490 N   0  0  0  0  0  0  0  0  0  0  0  0
   41.4970   17.6450   13.9570 C   0  0  0  0  0  0  0  0  0  0  0  0
   40.4380   16.8650   13.4840 C   0  0  0  0  0  0  0  0  0  0  0  0
   40.4400   15.4820   13.6950 C   0  0  0  0  0  0  0  0  0  0  0  0
   41.5000   14.8710   14.3810 C   0  0  0  0  0  0  0  0  0  0  0  0
   42.5580   15.6620   14.8520 C   0  0  0  0  0  0  0  0  0  0  0  0
   42.5560   17.0440   14.6410 C   0  0  0  0  0  0  0  0  0  0  0  0
   44.1374   11.5175   16.5752 H   0  0  0  0  0  0  0  0  0  0  0  0
   44.2214    9.1300   17.2895 H   0  0  0  0  0  0  0  0  0  0  0  0
   42.1282    7.7789   17.3775 H   0  0  0  0  0  0  0  0  0  0  0  0
   39.8597   11.2046   16.0377 H   0  0  0  0  0  0  0  0  0  0  0  0
   35.3970    5.4285   14.8428 H   0  0  0  0  0  0  0  0  0  0  0  0
   35.4075    7.1110   15.4911 H   0  0  0  0  0  0  0  0  0  0  0  0
   42.3719   13.5681   16.5195 H   0  0  0  0  0  0  0  0  0  0  0  0
   41.4963   18.7323   13.7905 H   0  0  0  0  0  0  0  0  0  0  0  0
   39.6034   17.3383   12.9461 H   0  0  0  0  0  0  0  0  0  0  0  0
   39.6057   14.8704   13.3209 H   0  0  0  0  0  0  0  0  0  0  0  0
   43.3943   15.1923   15.3906 H   0  0  0  0  0  0  0  0  0  0  0  0
   43.3888   17.6583   15.0139 H   0  0  0  0  0  0  0  0  0  0  0  0
  1  6  1  0
  1  2  2  0
  1 23  1  0
  2  3  1  0
  2 30  1  0
  3  4  2  0
  3 31  1  0
  4  5  1  0
  4 32  1  0
  5  7  1  0
  5  6  2  0
  6 33  1  0
  7  8  1  0
  7 11  2  0
  8  9  1  0
  9 13  1  0
  9 10  2  0
 10 11  1  0
 10 16  1  0
 11 12  1  0
 13 15  2  0
 13 14  1  0
 16 17  1  0
 17 18  1  0
 17 34  1  0
 17 35  1  0
 18 19  2  0
 18 20  1  0
 21 23  1  0
 21 22  2  0
 21 27  1  0
 23 36  1  0
 24 29  2  0
 24 25  1  0
 24 37  1  0
 25 26  2  0
 25 38  1  0
 26 27  1  0
 26 39  1  0
 27 28  2  0
 28 29  1  0
 28 40  1  0
 29 41  1  0
M  CHG  2  14  -1  20  -1
M  END
>  <s_m_entry_id>  (1) 
1354

>  <MODEL>  (1) 
1

>  <REMARK>  (1) 
 VINA RESULT:    -7.673      0.000      0.000
 INTER + INTRA:         -11.706
 INTER:                 -10.813
 INTRA:                  -0.893
 UNBOUND:                -0.893
  Name = /scratch/kmzp800/tmpwples33q/tmpu6xm6930.pdb
  7 active torsions:
  status: ('A' for Active; 'I' for Inactive)
    1  A    between atoms: C4_4  and  C5_5
    2  A    between atoms: N1_7  and  C6_8
    3  A    between atoms: C10_12  and  C11_13
    4  A    between atoms: C12_15  and  C13_16
    5  A    between atoms: C14_19  and  O4_20
    6  A    between atoms: O4_20  and  C15_21
    7  A    between atoms: C15_21  and  C16_22
                            x       y       z     vdW  Elec       q    Type
                         _______ _______ _______ _____ _____    ______ ____

>  <TORSDO>  (1) 
F 7

>  <grid_id>  (1) 
ptp1b-prepared

>  <grid_path>  (1) 
ptp1b_vina.pdbqt

>  <grid_filename>  (1) 
ptp1b_vina.pdbqt

>  <docking_score>  (1) 
-7.673

>  <compound_name>  (1) 
lig_23469

>  <index_string>  (1) 
8:0:0

>  <s_m_Source_Path>  (1) 
/projects/mai/users/kmzp800_harry/pmx_colab/docking_jobs/ptp1b/vina_prep

>  <s_m_Source_File>  (1) 
ptp1b_vina_naive_confs.sdf

>  <i_m_Source_File_Index>  (1) 
9

$$$$
