4:0:0
     RDKit          3D

 43 47  0  0  1  0  0  0  0  0999 V2000
    5.8080   -0.4950   16.3750 C   0  0  0  0  0  0  0  0  0  0  0  0
    4.5440   -0.9810   16.2930 N   0  0  0  0  0  0  0  0  0  0  0  0
    4.0020   -0.2840   15.2790 C   0  0  0  0  0  0  0  0  0  0  0  0
    2.7060   -0.4010   14.7840 C   0  0  0  0  0  0  0  0  0  0  0  0
    1.7890   -1.3430   15.3600 N   0  0  0  0  0  0  0  0  0  0  0  0
    2.3520    0.4070   13.7410 N   0  0  0  0  0  0  0  0  0  0  0  0
    3.2210    1.3080   13.1850 C   0  0  0  0  0  0  0  0  0  0  0  0
    4.5260    1.4070   13.7060 C   0  0  0  0  0  0  0  0  0  0  0  0
    4.8520    0.5940   14.7400 N   0  0  0  0  0  0  0  0  0  0  0  0
    6.0070    0.4880   15.4090 C   0  0  0  0  0  0  0  0  0  0  0  0
    2.7850    2.1580   12.0580 C   0  0  0  0  0  0  0  0  0  0  0  0
    3.7240    2.5510   11.0670 C   0  0  0  0  0  0  0  0  0  0  0  0
    3.3390    3.3600    9.9820 C   0  0  0  0  0  0  0  0  0  0  0  0
    2.0070    3.7550    9.9250 C   0  0  0  0  0  0  0  0  0  0  0  0
    1.3250    4.5290    9.0160 C   0  0  0  0  0  0  0  0  0  0  0  0
    0.0390    4.5940    9.4470 N   0  0  0  0  0  0  0  0  0  0  0  0
   -0.1030    3.8990   10.5730 N   0  0  0  0  0  0  0  0  0  0  0  0
    1.0980    3.3850   10.8680 C   0  0  0  0  0  0  0  0  0  0  0  0
    1.4420    2.5860   11.9540 C   0  0  0  0  0  0  0  0  0  0  0  0
    0.4310   -1.5800   14.9640 C   0  0  0  0  0  0  0  0  0  0  0  0
   -0.2190   -2.7970   15.2220 C   0  0  0  0  0  0  0  0  0  0  0  0
   -1.5430   -2.9890   14.8200 C   0  0  0  0  0  0  0  0  0  0  0  0
   -2.2280   -1.9680   14.1580 C   0  0  0  0  0  0  0  0  0  0  0  0
   -1.5940   -0.7500   13.8940 C   0  0  0  0  0  0  0  0  0  0  0  0
   -0.2620   -0.5630   14.3000 C   0  0  0  0  0  0  0  0  0  0  0  0
   -2.3060    0.2530   13.2290 O   0  0  0  0  0  0  0  0  0  0  0  0
   -1.7870    0.9420   12.1000 C   0  0  0  0  0  0  0  0  0  0  0  0
    6.5655   -0.8289   17.0993 H   0  0  0  0  0  0  0  0  0  0  0  0
    2.1447   -1.9103   16.1426 H   0  0  0  0  0  0  0  0  0  0  0  0
    5.2539    2.1183   13.2887 H   0  0  0  0  0  0  0  0  0  0  0  0
    6.9282    1.0622   15.2312 H   0  0  0  0  0  0  0  0  0  0  0  0
    4.7690    2.2175   11.1492 H   0  0  0  0  0  0  0  0  0  0  0  0
    4.0613    3.6670    9.2113 H   0  0  0  0  0  0  0  0  0  0  0  0
    1.7405    5.0034    8.1147 H   0  0  0  0  0  0  0  0  0  0  0  0
   -0.9710    3.7792   11.1144 H   0  0  0  0  0  0  0  0  0  0  0  0
    0.6936    2.2971   12.7066 H   0  0  0  0  0  0  0  0  0  0  0  0
    0.3170   -3.6038   15.7434 H   0  0  0  0  0  0  0  0  0  0  0  0
   -2.0464   -3.9453   15.0251 H   0  0  0  0  0  0  0  0  0  0  0  0
   -3.2705   -2.1225   13.8429 H   0  0  0  0  0  0  0  0  0  0  0  0
    0.2409    0.3933   14.0934 H   0  0  0  0  0  0  0  0  0  0  0  0
   -1.1572    1.7780   12.4383 H   0  0  0  0  0  0  0  0  0  0  0  0
   -1.1836    0.2503   11.4938 H   0  0  0  0  0  0  0  0  0  0  0  0
   -2.6184    1.3311   11.4938 H   0  0  0  0  0  0  0  0  0  0  0  0
  1  2  1  0
  1 10  2  0
  2  3  2  0
  3  4  1  0
  3  9  1  0
  4  5  1  0
  4  6  2  0
  5 20  1  0
  6  7  1  0
  7  8  2  0
  7 11  1  0
  8  9  1  0
  9 10  1  0
 11 12  2  0
 11 19  1  0
 12 13  1  0
 13 14  2  0
 14 18  1  0
 14 15  1  0
 15 16  2  0
 16 17  1  0
 17 18  1  0
 18 19  2  0
 20 21  2  0
 20 25  1  0
 21 22  1  0
 22 23  2  0
 23 24  1  0
 24 25  2  0
 24 26  1  0
 26 27  1  0
  1 28  1  0
  5 29  1  0
  8 30  1  0
 10 31  1  0
 12 32  1  0
 13 33  1  0
 15 34  1  0
 17 35  1  0
 19 36  1  0
 21 37  1  0
 22 38  1  0
 23 39  1  0
 25 40  1  0
 27 41  1  0
 27 42  1  0
 27 43  1  0
M  END
>  <s_m_entry_id>  (1) 
291

>  <MODEL>  (1) 
2

>  <REMARK>  (1) 
 VINA RESULT:    -9.091      2.008      5.985
 INTER + INTRA:         -11.366
 INTER:                 -11.099
 INTRA:                  -0.267
 UNBOUND:                -0.680
  Name = /scratch/kmzp800/tmpg6g6fjy9/tmp1yxzlqsb.pdb
  4 active torsions:
  status: ('A' for Active; 'I' for Inactive)
    1  A    between atoms: N2_5  and  C4_6
    2  A    between atoms: C8_10  and  O1_11
    3  A    between atoms: O1_11  and  C9_12
    4  A    between atoms: C11_15  and  C12_16
                            x       y       z     vdW  Elec       q    Type
                         _______ _______ _______ _____ _____    ______ ____

>  <TORSDO>  (1) 
F 3

>  <grid_id>  (1) 
syk-prepared

>  <grid_path>  (1) 
syk_vina.pdbqt

>  <grid_filename>  (1) 
syk_vina.pdbqt

>  <docking_score>  (1) 
-9.091

>  <compound_name>  (1) 
CHEMBL3265028

>  <index_string>  (1) 
4:0:0

>  <s_m_Source_Path>  (1) 
/projects/mai/users/kmzp800_harry/pmx_colab/docking_jobs/syk/vina_prep/output

>  <s_m_Source_File>  (1) 
ptp1b_docked_conformers.sdf

>  <i_m_Source_File_Index>  (1) 
115

$$$$
