39:0:0
     RDKit          3D

 51 54  0  0  1  0  0  0  0  0999 V2000
   -4.4792   -3.0424   16.1141 C   0  0  0  0  0  0  0  0  0  0  0  0
   -3.8969   -2.3407   15.0263 O   0  0  0  0  0  0  0  0  0  0  0  0
   -2.5278   -2.1733   15.0494 C   0  0  0  0  0  0  0  0  0  0  0  0
   -1.6539   -3.0094   15.7872 C   0  0  0  0  0  0  0  0  0  0  0  0
   -0.2741   -2.7440   15.8096 C   0  0  0  0  0  0  0  0  0  0  0  0
    0.2679   -1.6437   15.1162 C   0  0  0  0  0  0  0  0  0  0  0  0
    1.6460   -1.4148   15.2650 N   0  0  0  0  0  0  0  0  0  0  0  0
    2.5339   -0.4617   14.7349 C   0  0  0  0  0  0  0  0  0  0  0  0
    2.1883    0.3572   13.7701 N   0  0  0  0  0  0  0  0  0  0  0  0
    3.1150    1.2563   13.2646 C   0  0  0  0  0  0  0  0  0  0  0  0
    4.4197    1.2791   13.7205 C   0  0  0  0  0  0  0  0  0  0  0  0
    4.7613    0.4511   14.7480 N   0  0  0  0  0  0  0  0  0  0  0  0
    5.9061    0.3673   15.5245 C   0  0  0  0  0  0  0  0  0  0  0  0
    5.5922   -0.4999   16.5380 C   0  0  0  0  0  0  0  0  0  0  0  0
    4.3611   -1.0858   16.3379 N   0  0  0  0  0  0  0  0  0  0  0  0
    3.8356   -0.4323   15.3111 C   0  0  0  0  0  0  0  0  0  0  0  0
    2.5715    2.2793   12.3181 C   0  0  0  0  0  0  0  0  0  0  0  0
    1.2682    2.7923   12.5515 C   0  0  0  0  0  0  0  0  0  0  0  0
    0.6595    3.7281   11.6862 C   0  0  0  0  0  0  0  0  0  0  0  0
    1.3599    4.1871   10.5595 C   0  0  0  0  0  0  0  0  0  0  0  0
    2.6676    3.7393   10.3274 C   0  0  0  0  0  0  0  0  0  0  0  0
    3.2754    2.8004   11.1884 C   0  0  0  0  0  0  0  0  0  0  0  0
    4.6670    2.3364   10.7999 C   0  0  0  0  0  0  0  0  0  0  0  0
   -0.7296    4.2186   11.9436 C   0  0  0  0  0  0  0  0  0  0  0  0
   -1.6219    4.0992   11.1103 O   0  0  0  0  0  0  0  0  0  0  0  0
   -0.9164    4.8151   13.1183 N   0  0  0  0  0  0  0  0  0  0  0  0
   -0.6028   -0.8285   14.3655 C   0  0  0  0  0  0  0  0  0  0  0  0
   -1.9967   -1.0910   14.3173 C   0  0  0  0  0  0  0  0  0  0  0  0
   -2.8968   -0.3067   13.6290 O   0  0  0  0  0  0  0  0  0  0  0  0
   -2.3737    0.7384   12.8223 C   0  0  0  0  0  0  0  0  0  0  0  0
   -5.5623   -2.9216   16.0414 H   0  0  0  0  0  0  0  0  0  0  0  0
   -4.2629   -4.1113   16.0728 H   0  0  0  0  0  0  0  0  0  0  0  0
   -4.1628   -2.6361   17.0761 H   0  0  0  0  0  0  0  0  0  0  0  0
   -2.0249   -3.8520   16.3511 H   0  0  0  0  0  0  0  0  0  0  0  0
    0.3683   -3.3835   16.3973 H   0  0  0  0  0  0  0  0  0  0  0  0
    2.0949   -2.0163   15.9439 H   0  0  0  0  0  0  0  0  0  0  0  0
    5.1619    2.0048   13.4088 H   0  0  0  0  0  0  0  0  0  0  0  0
    6.7590    0.9973   15.3271 H   0  0  0  0  0  0  0  0  0  0  0  0
    6.0938   -0.7467   17.4526 H   0  0  0  0  0  0  0  0  0  0  0  0
    0.7124    2.4449   13.4099 H   0  0  0  0  0  0  0  0  0  0  0  0
    0.8964    4.8926    9.8873 H   0  0  0  0  0  0  0  0  0  0  0  0
    3.1978    4.1103    9.4618 H   0  0  0  0  0  0  0  0  0  0  0  0
    4.7641    2.4004    9.7147 H   0  0  0  0  0  0  0  0  0  0  0  0
    5.4120    2.9774   11.2632 H   0  0  0  0  0  0  0  0  0  0  0  0
    4.8583    1.2942   11.0728 H   0  0  0  0  0  0  0  0  0  0  0  0
   -1.8164    5.1998   13.3469 H   0  0  0  0  0  0  0  0  0  0  0  0
   -0.1423    4.9349   13.7571 H   0  0  0  0  0  0  0  0  0  0  0  0
   -0.2090    0.0277   13.8547 H   0  0  0  0  0  0  0  0  0  0  0  0
   -3.1564    1.1391   12.1820 H   0  0  0  0  0  0  0  0  0  0  0  0
   -1.9927    1.5522   13.4354 H   0  0  0  0  0  0  0  0  0  0  0  0
   -1.5702    0.3949   12.1788 H   0  0  0  0  0  0  0  0  0  0  0  0
  1  2  1  0
  1 31  1  0
  1 32  1  0
  1 33  1  0
  2  3  1  0
  3  4  2  0
  3 28  1  0
  4  5  1  0
  4 34  1  0
  5  6  2  0
  5 35  1  0
  6  7  1  0
  6 27  1  0
  7  8  1  0
  7 36  1  0
  8  9  2  0
  8 16  1  0
  9 10  1  0
 10 11  2  0
 10 17  1  0
 11 12  1  0
 11 37  1  0
 12 13  1  0
 12 16  1  0
 13 14  2  0
 13 38  1  0
 14 15  1  0
 14 39  1  0
 15 16  2  0
 17 18  2  0
 17 22  1  0
 18 19  1  0
 18 40  1  0
 19 20  2  0
 19 24  1  0
 20 21  1  0
 20 41  1  0
 21 22  2  0
 21 42  1  0
 22 23  1  0
 23 43  1  0
 23 44  1  0
 23 45  1  0
 24 25  2  0
 24 26  1  0
 26 46  1  0
 26 47  1  0
 27 28  2  0
 27 48  1  0
 28 29  1  0
 29 30  1  0
 30 49  1  0
 30 50  1  0
 30 51  1  0
M  END
>  <s_m_entry_id>  (1) 
1026

>  <IC50[nM]>  (1) 
466

>  <s_m_Source_Path>  (1) 
/projects/mai/users/kmzp800_harry/pmx_colab/docking_jobs/syk

>  <s_m_Source_File>  (1) 
tnks2_lig.sdf

>  <i_m_Source_File_Index>  (1) 
40

>  <s_m_job_name>  (1) 
glide-dock_SP_tnks2_core_const

>  <r_i_docking_score>  (1) 
-7.59673239003764

>  <r_i_glide_gscore>  (1) 
-7.59673239003764

>  <r_i_glide_emodel>  (1) 
-45.5168082594706

>  <index_string>  (1) 
39:0:0

$$$$
