22:0:0
     RDKit          3D

 51 54  0  0  1  0  0  0  0  0999 V2000
    6.1300    0.0440   15.7880 C   0  0  0  0  0  0  0  0  0  0  0  0
    5.7630    0.8580   14.7660 N   0  0  0  0  0  0  0  0  0  0  0  0
    4.4830    0.5210   14.5380 C   0  0  0  0  0  0  0  0  0  0  0  0
    3.6340    1.0680   13.5790 C   0  0  0  0  0  0  0  0  0  0  0  0
    4.0970    2.1040   12.7010 N   0  0  0  0  0  0  0  0  0  0  0  0
    2.3590    0.5810   13.5100 N   0  0  0  0  0  0  0  0  0  0  0  0
    1.9080   -0.4090   14.3450 C   0  0  0  0  0  0  0  0  0  0  0  0
    2.7880   -0.9440   15.3060 C   0  0  0  0  0  0  0  0  0  0  0  0
    4.0450   -0.4430   15.3520 N   0  0  0  0  0  0  0  0  0  0  0  0
    5.0630   -0.7710   16.1580 C   0  0  0  0  0  0  0  0  0  0  0  0
    0.5190   -0.8990   14.2270 C   0  0  0  0  0  0  0  0  0  0  0  0
   -0.4500   -0.1170   13.5880 C   0  0  0  0  0  0  0  0  0  0  0  0
   -1.7630   -0.5720   13.4730 C   0  0  0  0  0  0  0  0  0  0  0  0
   -2.1470   -1.8180   13.9920 C   0  0  0  0  0  0  0  0  0  0  0  0
   -1.1670   -2.6120   14.6400 C   0  0  0  0  0  0  0  0  0  0  0  0
   -1.4660   -3.9500   15.2270 C   0  0  0  0  0  0  0  0  0  0  0  0
    0.1470   -2.1450   14.7490 C   0  0  0  0  0  0  0  0  0  0  0  0
   -3.5630   -2.2330   13.8310 C   0  0  0  0  0  0  0  0  0  0  0  0
   -4.3960   -2.0910   14.7640 O   0  0  0  0  0  0  0  0  0  0  0  0
   -4.0040   -2.8060   12.6020 N   0  0  0  0  0  0  0  0  0  0  0  0
    3.3500    2.7620   11.6700 C   0  0  0  0  0  0  0  0  0  0  0  0
    3.9210    3.1020   10.4370 C   0  0  0  0  0  0  0  0  0  0  0  0
    3.1610    3.7430    9.4580 C   0  0  0  0  0  0  0  0  0  0  0  0
    1.8130    4.0550    9.6970 C   0  0  0  0  0  0  0  0  0  0  0  0
    1.2330    3.7190   10.9290 C   0  0  0  0  0  0  0  0  0  0  0  0
    2.0080    3.0730   11.9080 C   0  0  0  0  0  0  0  0  0  0  0  0
    1.0340    4.6970    8.7280 O   0  0  0  0  0  0  0  0  0  0  0  0
    0.8180    6.1020    8.7220 C   0  0  0  0  0  0  0  0  0  0  0  0
   -0.1110    4.0330   11.1600 O   0  0  0  0  0  0  0  0  0  0  0  0
   -1.0730    3.0610   11.5470 C   0  0  0  0  0  0  0  0  0  0  0  0
    7.1254    0.0300   16.2560 H   0  0  0  0  0  0  0  0  0  0  0  0
    5.0732    2.4082   12.8253 H   0  0  0  0  0  0  0  0  0  0  0  0
    2.4658   -1.7396   15.9939 H   0  0  0  0  0  0  0  0  0  0  0  0
    5.0575   -1.5315   16.9527 H   0  0  0  0  0  0  0  0  0  0  0  0
   -0.1737    0.8637   13.1735 H   0  0  0  0  0  0  0  0  0  0  0  0
   -2.5106    0.0564   12.9668 H   0  0  0  0  0  0  0  0  0  0  0  0
   -1.4505   -3.8806   16.3247 H   0  0  0  0  0  0  0  0  0  0  0  0
   -2.4605   -4.2823   14.8946 H   0  0  0  0  0  0  0  0  0  0  0  0
   -0.7075   -4.6740   14.8946 H   0  0  0  0  0  0  0  0  0  0  0  0
    0.9014   -2.7667   15.2533 H   0  0  0  0  0  0  0  0  0  0  0  0
   -4.9868   -3.0937   12.4913 H   0  0  0  0  0  0  0  0  0  0  0  0
   -3.3398   -2.9322   11.8250 H   0  0  0  0  0  0  0  0  0  0  0  0
    4.9761    2.8620   10.2391 H   0  0  0  0  0  0  0  0  0  0  0  0
    3.6204    4.0054    8.4936 H   0  0  0  0  0  0  0  0  0  0  0  0
    1.5525    2.8088   12.8738 H   0  0  0  0  0  0  0  0  0  0  0  0
    0.7616    6.4687    9.7575 H   0  0  0  0  0  0  0  0  0  0  0  0
    1.6503    6.5987    8.2019 H   0  0  0  0  0  0  0  0  0  0  0  0
   -0.1251    6.3258    8.2019 H   0  0  0  0  0  0  0  0  0  0  0  0
   -1.1225    3.0110   12.6447 H   0  0  0  0  0  0  0  0  0  0  0  0
   -2.0589    3.3417   11.1479 H   0  0  0  0  0  0  0  0  0  0  0  0
   -0.7821    2.0781   11.1479 H   0  0  0  0  0  0  0  0  0  0  0  0
  1 10  2  0
  1  2  1  0
  2  3  2  0
  3  9  1  0
  3  4  1  0
  4  5  1  0
  4  6  2  0
  5 21  1  0
  6  7  1  0
  7  8  2  0
  7 11  1  0
  8  9  1  0
  9 10  1  0
 11 17  1  0
 11 12  2  0
 12 13  1  0
 13 14  2  0
 14 15  1  0
 14 18  1  0
 15 17  2  0
 15 16  1  0
 18 19  2  0
 18 20  1  0
 21 26  1  0
 21 22  2  0
 22 23  1  0
 23 24  2  0
 24 25  1  0
 24 27  1  0
 25 29  1  0
 25 26  2  0
 27 28  1  0
 29 30  1  0
  1 31  1  0
  5 32  1  0
  8 33  1  0
 10 34  1  0
 12 35  1  0
 13 36  1  0
 16 37  1  0
 16 38  1  0
 16 39  1  0
 17 40  1  0
 20 41  1  0
 20 42  1  0
 22 43  1  0
 23 44  1  0
 26 45  1  0
 28 46  1  0
 28 47  1  0
 28 48  1  0
 30 49  1  0
 30 50  1  0
 30 51  1  0
M  END
>  <s_m_entry_id>  (1) 
23

>  <MODEL>  (1) 
1

>  <REMARK>  (1) 
 VINA RESULT:    -9.253      0.000      0.000
 INTER + INTRA:         -12.493
 INTER:                 -11.958
 INTRA:                  -0.535
 UNBOUND:                -0.535
  Name = /scratch/kmzp800/tmp0jpuqaqu/tmp20defrb8.pdb
  8 active torsions:
  status: ('A' for Active; 'I' for Inactive)
    1  A    between atoms: N2_5  and  C4_6
    2  A    between atoms: C7_9  and  O1_10
    3  A    between atoms: O1_10  and  C8_11
    4  A    between atoms: C9_12  and  O2_13
    5  A    between atoms: O2_13  and  C10_14
    6  A    between atoms: C12_17  and  C13_18
    7  A    between atoms: C16_21  and  C17_22
    8  A    between atoms: C18_25  and  C19_26
                            x       y       z     vdW  Elec       q    Type
                         _______ _______ _______ _____ _____    ______ ____

>  <TORSDO>  (1) 
F 5

>  <grid_id>  (1) 
syk-prepared

>  <grid_path>  (1) 
syk_vina.pdbqt

>  <grid_filename>  (1) 
syk_vina.pdbqt

>  <docking_score>  (1) 
-9.253

>  <compound_name>  (1) 
CHEMBL3265013

>  <index_string>  (1) 
22:0:0

>  <s_m_Source_Path>  (1) 
/projects/mai/users/kmzp800_harry/pmx_colab/docking_jobs/syk/vina_prep/output

>  <s_m_Source_File>  (1) 
ptp1b_docked_conformers.sdf

>  <i_m_Source_File_Index>  (1) 
23

$$$$
