26:0:0
     RDKit          3D

 58 61  0  0  1  0  0  0  0  0999 V2000
   32.9386   34.4727   14.5660 F   0  0  0  0  0  0  0  0  0  0  0  0
   33.6335   34.8449   15.6659 C   0  0  0  0  0  0  0  0  0  0  0  0
   35.0327   34.9622   15.6187 C   0  0  0  0  0  0  0  0  0  0  0  0
   35.7510   35.3665   16.7632 C   0  0  0  0  0  0  0  0  0  0  0  0
   37.0914   35.5458   16.6855 F   0  0  0  0  0  0  0  0  0  0  0  0
   35.0871   35.5489   17.9973 C   0  0  0  0  0  0  0  0  0  0  0  0
   33.6745   35.4463   18.0294 C   0  0  0  0  0  0  0  0  0  0  0  0
   32.9570   35.1493   16.8560 C   0  0  0  0  0  0  0  0  0  0  0  0
   35.8565   35.8235   19.1095 O   0  0  0  0  0  0  0  0  0  0  0  0
   35.2681   36.2811   20.2608 C   0  0  0  0  0  0  0  0  0  0  0  0
   35.3522   37.5912   20.5441 C   0  0  0  0  0  0  0  0  0  0  0  0
   34.6107   35.3317   21.1756 C   0  0  0  0  0  0  0  0  0  0  0  0
   34.5517   34.1293   20.9082 O   0  0  0  0  0  0  0  0  0  0  0  0
   34.0574   35.8581   22.3136 N   0  0  0  0  0  0  0  0  0  0  0  0
   33.2429   34.9930   23.1917 C   0  0  0  0  0  0  0  0  0  0  0  0
   31.7408   35.2398   22.9406 C   0  0  0  0  0  0  0  0  0  0  0  0
   30.7883   34.4474   23.8535 C   0  0  0  0  0  0  0  0  0  0  0  0
   30.4716   32.7270   23.2699 S   0  0  0  0  0  0  0  0  0  0  0  0
   31.7520   32.0804   22.9527 O   0  0  0  0  0  0  0  0  0  0  0  0
   29.5385   32.0865   24.2099 O   0  0  0  0  0  0  0  0  0  0  0  0
   29.5823   33.0054   21.6955 C   0  0  0  0  0  0  0  0  0  0  0  0
   34.1550   37.2497   22.6676 C   0  0  0  0  0  0  0  0  0  0  0  0
   34.7944   38.1287   21.7714 C   0  0  0  0  0  0  0  0  0  0  0  0
   33.6377   37.7425   23.8173 N   0  0  0  0  0  0  0  0  0  0  0  0
   33.7326   39.0501   24.0530 C   0  0  0  0  0  0  0  0  0  0  0  0
   34.3157   39.9493   23.2656 N   0  0  0  0  0  0  0  0  0  0  0  0
   34.8551   39.4895   22.1213 C   0  0  0  0  0  0  0  0  0  0  0  0
   33.1711   39.5492   25.2101 N   0  0  0  0  0  0  0  0  0  0  0  0
   32.6208   38.7463   26.2970 C   0  0  0  0  0  0  0  0  0  0  0  0
   32.4395   39.6017   27.5576 C   0  0  0  0  0  0  0  0  0  0  0  0
   31.8287   38.7703   28.6965 C   0  0  0  0  0  0  0  0  0  0  0  0
   30.5897   38.2111   28.2753 O   0  0  0  0  0  0  0  0  0  0  0  0
   30.7236   37.3330   27.1632 C   0  0  0  0  0  0  0  0  0  0  0  0
   31.2613   38.1088   25.9497 C   0  0  0  0  0  0  0  0  0  0  0  0
   35.5437   34.7548   14.6910 H   0  0  0  0  0  0  0  0  0  0  0  0
   33.1068   35.6216   18.9297 H   0  0  0  0  0  0  0  0  0  0  0  0
   31.8783   35.1492   16.8883 H   0  0  0  0  0  0  0  0  0  0  0  0
   35.8512   38.2707   19.8688 H   0  0  0  0  0  0  0  0  0  0  0  0
   33.4811   33.9361   23.0684 H   0  0  0  0  0  0  0  0  0  0  0  0
   33.4875   35.2004   24.2352 H   0  0  0  0  0  0  0  0  0  0  0  0
   31.5224   36.2975   23.0912 H   0  0  0  0  0  0  0  0  0  0  0  0
   31.5166   35.0481   21.8938 H   0  0  0  0  0  0  0  0  0  0  0  0
   31.1706   34.3958   24.8730 H   0  0  0  0  0  0  0  0  0  0  0  0
   29.8173   34.9409   23.9066 H   0  0  0  0  0  0  0  0  0  0  0  0
   29.3520   32.0386   21.2501 H   0  0  0  0  0  0  0  0  0  0  0  0
   28.6597   33.5491   21.8889 H   0  0  0  0  0  0  0  0  0  0  0  0
   30.2029   33.5492   20.9873 H   0  0  0  0  0  0  0  0  0  0  0  0
   35.3401   40.2154   21.4892 H   0  0  0  0  0  0  0  0  0  0  0  0
   33.3511   40.5295   25.4024 H   0  0  0  0  0  0  0  0  0  0  0  0
   33.3358   37.9528   26.5163 H   0  0  0  0  0  0  0  0  0  0  0  0
   33.3915   40.0295   27.8752 H   0  0  0  0  0  0  0  0  0  0  0  0
   31.7747   40.4345   27.3350 H   0  0  0  0  0  0  0  0  0  0  0  0
   32.5089   37.9778   29.0123 H   0  0  0  0  0  0  0  0  0  0  0  0
   31.6488   39.4008   29.5672 H   0  0  0  0  0  0  0  0  0  0  0  0
   31.3888   36.5064   27.4172 H   0  0  0  0  0  0  0  0  0  0  0  0
   29.7524   36.8934   26.9407 H   0  0  0  0  0  0  0  0  0  0  0  0
   30.5450   38.8800   25.6624 H   0  0  0  0  0  0  0  0  0  0  0  0
   31.3481   37.4296   25.1020 H   0  0  0  0  0  0  0  0  0  0  0  0
  1  2  1  0
  2  8  2  0
  2  3  1  0
  3  4  2  0
  3 35  1  0
  4  5  1  0
  4  6  1  0
  6  7  2  0
  6  9  1  0
  7  8  1  0
  7 36  1  0
  8 37  1  0
  9 10  1  0
 10 11  2  0
 10 12  1  0
 11 23  1  0
 11 38  1  0
 12 13  2  0
 12 14  1  0
 14 15  1  0
 14 22  1  0
 15 16  1  0
 15 39  1  0
 15 40  1  0
 16 17  1  0
 16 41  1  0
 16 42  1  0
 17 18  1  0
 17 43  1  0
 17 44  1  0
 18 19  2  0
 18 20  2  0
 18 21  1  0
 21 45  1  0
 21 46  1  0
 21 47  1  0
 22 23  2  0
 22 24  1  0
 23 27  1  0
 24 25  2  0
 25 26  1  0
 25 28  1  0
 26 27  2  0
 27 48  1  0
 28 29  1  0
 28 49  1  0
 29 34  1  0
 29 30  1  0
 29 50  1  0
 30 31  1  0
 30 51  1  0
 30 52  1  0
 31 32  1  0
 31 53  1  0
 31 54  1  0
 32 33  1  0
 33 34  1  0
 33 55  1  0
 33 56  1  0
 34 57  1  0
 34 58  1  0
M  END
>  <s_m_entry_id>  (1) 
742

>  <i_f3d_flags>  (1) 
0

>  <r_lp_tautomer_probability>  (1) 
1

>  <r_epik_Ionization_Penalty>  (1) 
  0.0000

>  <r_epik_State_Penalty>  (1) 
  0.0000

>  <i_epik_Tot_Q>  (1) 
0

>  <s_m_job_name>  (1) 
glide-dock_SP_p38_all_ligs_no_cons_10_poses

>  <r_i_docking_score>  (1) 
-7.29595971695013

>  <r_i_glide_gscore>  (1) 
-7.29595971695013

>  <r_i_glide_emodel>  (1) 
-67.8321679652444

>  <index_string>  (1) 
26:0:0

$$$$
