14:0:0
     RDKit          3D

 42 44  0  0  1  0  0  0  0  0999 V2000
   41.8390   11.0840   15.8190 C   0  0  0  0  0  0  0  0  0  0  0  0
   42.7970   10.4090   16.5880 C   0  0  0  0  0  0  0  0  0  0  0  0
   42.5650    9.0940   16.9970 C   0  0  0  0  0  0  0  0  0  0  0  0
   41.3770    8.4520   16.6440 C   0  0  0  0  0  0  0  0  0  0  0  0
   40.4020    9.1180   15.8850 C   0  0  0  0  0  0  0  0  0  0  0  0
   40.6510   10.4340   15.4720 C   0  0  0  0  0  0  0  0  0  0  0  0
   39.1580    8.4080   15.5020 C   0  0  0  0  0  0  0  0  0  0  0  0
   38.7790    7.9890   13.9150 S   0  0  0  0  0  0  0  0  0  0  0  0
   37.3090    7.2530   14.2410 C   0  0  0  0  0  0  0  0  0  0  0  0
   37.0720    7.3260   15.6110 C   0  0  0  0  0  0  0  0  0  0  0  0
   38.1170    7.9590   16.3330 C   0  0  0  0  0  0  0  0  0  0  0  0
   38.1940    8.0160   18.2550 Br  0  0  0  0  0  0  0  0  0  0  0  0
   36.4280    6.6560   13.2260 C   0  0  0  0  0  0  0  0  0  0  0  0
   35.3300    7.2050   12.9430 O   0  0  0  0  0  0  0  0  0  0  0  0
   36.7930    5.4860   12.5720 O   0  0  0  0  0  0  0  0  0  0  0  0
   35.9020    6.7900   16.1710 O   0  0  0  0  0  0  0  0  0  0  0  0
   35.7110    5.4110   16.4580 C   0  0  0  0  0  0  0  0  0  0  0  0
   34.4570    4.9240   15.8180 C   0  0  0  0  0  0  0  0  0  0  0  0
   33.3390    5.2840   16.2700 O   0  0  0  0  0  0  0  0  0  0  0  0
   34.5190    4.0390   14.7510 O   0  0  0  0  0  0  0  0  0  0  0  0
   42.0480   12.4320   15.3850 N   0  0  0  0  0  0  0  0  0  0  0  0
   41.2290   13.0970   14.3790 C   0  0  0  0  0  0  0  0  0  0  0  0
   41.9840   17.3190   14.3810 C   0  0  0  0  0  0  0  0  0  0  0  0
   40.7910   16.8240   13.8450 C   0  0  0  0  0  0  0  0  0  0  0  0
   40.5430   15.4480   13.8470 C   0  0  0  0  0  0  0  0  0  0  0  0
   41.4870   14.5650   14.3860 C   0  0  0  0  0  0  0  0  0  0  0  0
   42.6800   15.0630   14.9210 C   0  0  0  0  0  0  0  0  0  0  0  0
   42.9280   16.4390   14.9190 C   0  0  0  0  0  0  0  0  0  0  0  0
   43.7321   10.9153   16.8695 H   0  0  0  0  0  0  0  0  0  0  0  0
   43.3189    8.5640   17.5976 H   0  0  0  0  0  0  0  0  0  0  0  0
   41.2031    7.4140   16.9637 H   0  0  0  0  0  0  0  0  0  0  0  0
   39.9007   10.9630   14.8660 H   0  0  0  0  0  0  0  0  0  0  0  0
   36.5648    4.8367   16.0690 H   0  0  0  0  0  0  0  0  0  0  0  0
   35.6350    5.2770   17.5472 H   0  0  0  0  0  0  0  0  0  0  0  0
   42.8224   12.9631   15.8083 H   0  0  0  0  0  0  0  0  0  0  0  0
   41.4734   12.6908   13.3864 H   0  0  0  0  0  0  0  0  0  0  0  0
   40.1680   12.9202   14.6091 H   0  0  0  0  0  0  0  0  0  0  0  0
   42.1799   18.4014   14.3794 H   0  0  0  0  0  0  0  0  0  0  0  0
   40.0483   17.5166   13.4222 H   0  0  0  0  0  0  0  0  0  0  0  0
   39.6050   15.0584   13.4246 H   0  0  0  0  0  0  0  0  0  0  0  0
   43.4236   14.3713   15.3436 H   0  0  0  0  0  0  0  0  0  0  0  0
   43.8660   16.8293   15.3408 H   0  0  0  0  0  0  0  0  0  0  0  0
  1  2  2  0
  1  6  1  0
  1 21  1  0
  2  3  1  0
  2 29  1  0
  3  4  2  0
  3 30  1  0
  4  5  1  0
  4 31  1  0
  5  6  2  0
  5  7  1  0
  6 32  1  0
  7 11  2  0
  7  8  1  0
  8  9  1  0
  9 10  2  0
  9 13  1  0
 10 16  1  0
 10 11  1  0
 11 12  1  0
 13 14  1  0
 13 15  2  0
 16 17  1  0
 17 18  1  0
 17 33  1  0
 17 34  1  0
 18 19  1  0
 18 20  2  0
 21 22  1  0
 21 35  1  0
 22 26  1  0
 22 36  1  0
 22 37  1  0
 23 28  2  0
 23 24  1  0
 23 38  1  0
 24 25  2  0
 24 39  1  0
 25 26  1  0
 25 40  1  0
 26 27  2  0
 27 28  1  0
 27 41  1  0
 28 42  1  0
M  CHG  2  14  -1  19  -1
M  END
>  <s_m_entry_id>  (1) 
1360

>  <MODEL>  (1) 
1

>  <REMARK>  (1) 
 VINA RESULT:    -7.418      0.000      0.000
 INTER + INTRA:         -11.839
 INTER:                 -10.888
 INTRA:                  -0.952
 UNBOUND:                -0.952
  Name = /scratch/kmzp800/tmptpw0e29h/tmpxybbmnec.pdb
  8 active torsions:
  status: ('A' for Active; 'I' for Inactive)
    1  A    between atoms: C4_4  and  C5_5
    2  A    between atoms: C5_5  and  N1_6
    3  A    between atoms: N1_6  and  C6_7
    4  A    between atoms: C10_11  and  C11_12
    5  A    between atoms: C12_14  and  C13_15
    6  A    between atoms: C14_18  and  O3_19
    7  A    between atoms: O3_19  and  C15_20
    8  A    between atoms: C15_20  and  C16_21
                            x       y       z     vdW  Elec       q    Type
                         _______ _______ _______ _____ _____    ______ ____

>  <TORSDO>  (1) 
F 8

>  <grid_id>  (1) 
ptp1b-prepared

>  <grid_path>  (1) 
ptp1b_vina.pdbqt

>  <grid_filename>  (1) 
ptp1b_vina.pdbqt

>  <docking_score>  (1) 
-7.418

>  <compound_name>  (1) 
lig_20669_2qbr

>  <index_string>  (1) 
14:0:0

>  <s_m_Source_Path>  (1) 
/projects/mai/users/kmzp800_harry/pmx_colab/docking_jobs/ptp1b/vina_prep

>  <s_m_Source_File>  (1) 
ptp1b_vina_naive_confs.sdf

>  <i_m_Source_File_Index>  (1) 
15

$$$$
