13:0:0
     RDKit          3D

 60 64  0  0  1  0  0  0  0  0999 V2000
   -4.4123    3.8551    9.1623 C   0  0  0  0  0  0  0  0  0  0  0  0
   -3.6922    4.2438   10.3250 O   0  0  0  0  0  0  0  0  0  0  0  0
   -2.3114    4.2350   10.2726 C   0  0  0  0  0  0  0  0  0  0  0  0
   -1.5712    3.9026    9.1094 C   0  0  0  0  0  0  0  0  0  0  0  0
   -0.1661    3.9115    9.1208 C   0  0  0  0  0  0  0  0  0  0  0  0
    0.5235    4.2220   10.3054 C   0  0  0  0  0  0  0  0  0  0  0  0
    1.9222    4.1910   10.3200 N   0  0  0  0  0  0  0  0  0  0  0  0
    2.7156    3.6297   11.3313 C   0  0  0  0  0  0  0  0  0  0  0  0
    2.2403    2.5992   11.9720 N   0  0  0  0  0  0  0  0  0  0  0  0
    2.9787    2.0156   12.9719 C   0  0  0  0  0  0  0  0  0  0  0  0
    4.2107    2.5058   13.3484 C   0  0  0  0  0  0  0  0  0  0  0  0
    4.7124    3.5678   12.6676 N   0  0  0  0  0  0  0  0  0  0  0  0
    5.9085    4.2494   12.7846 C   0  0  0  0  0  0  0  0  0  0  0  0
    5.8970    5.2132   11.8179 C   0  0  0  0  0  0  0  0  0  0  0  0
    4.7084    5.1868   11.0940 N   0  0  0  0  0  0  0  0  0  0  0  0
    3.9973    4.1814   11.6123 C   0  0  0  0  0  0  0  0  0  0  0  0
    2.3827    0.8119   13.6040 C   0  0  0  0  0  0  0  0  0  0  0  0
    3.2217   -0.1098   14.2697 C   0  0  0  0  0  0  0  0  0  0  0  0
    2.6930   -1.1960   14.9852 C   0  0  0  0  0  0  0  0  0  0  0  0
    1.3121   -1.4347   14.9825 C   0  0  0  0  0  0  0  0  0  0  0  0
    0.4426   -0.5902   14.2494 C   0  0  0  0  0  0  0  0  0  0  0  0
    0.9878    0.5399   13.5880 C   0  0  0  0  0  0  0  0  0  0  0  0
   -1.0346   -0.8865   14.1813 C   0  0  0  0  0  0  0  0  0  0  0  0
   -1.8421   -0.0301   13.8177 O   0  0  0  0  0  0  0  0  0  0  0  0
   -1.3579   -2.1507   14.5073 N   0  0  0  0  0  0  0  0  0  0  0  0
   -2.6184   -2.7998   14.5084 C   0  0  0  0  0  0  0  0  0  0  0  0
   -2.7607   -3.9129   15.3632 C   0  0  0  0  0  0  0  0  0  0  0  0
   -3.9595   -4.6470   15.3807 C   0  0  0  0  0  0  0  0  0  0  0  0
   -5.0190   -4.2840   14.5298 C   0  0  0  0  0  0  0  0  0  0  0  0
   -4.8959   -3.1742   13.6626 C   0  0  0  0  0  0  0  0  0  0  0  0
   -3.6877   -2.4338   13.6551 C   0  0  0  0  0  0  0  0  0  0  0  0
   -6.0377   -2.7952   12.7638 C   0  0  0  0  0  0  0  0  0  0  0  0
   -6.9872   -3.5952   12.6197 O   0  0  0  0  0  0  0  0  0  0  0  0
   -6.0234   -1.6676   12.2174 O   0  0  0  0  0  0  0  0  0  0  0  0
   -0.2021    4.5721   11.4626 C   0  0  0  0  0  0  0  0  0  0  0  0
   -1.6188    4.5903   11.4543 C   0  0  0  0  0  0  0  0  0  0  0  0
   -2.3808    4.9354   12.5543 O   0  0  0  0  0  0  0  0  0  0  0  0
   -1.7156    5.5010   13.6736 C   0  0  0  0  0  0  0  0  0  0  0  0
   -5.4807    3.9069    9.3695 H   0  0  0  0  0  0  0  0  0  0  0  0
   -4.2072    4.5192    8.3212 H   0  0  0  0  0  0  0  0  0  0  0  0
   -4.1816    2.8274    8.8787 H   0  0  0  0  0  0  0  0  0  0  0  0
   -2.0631    3.6301    8.1902 H   0  0  0  0  0  0  0  0  0  0  0  0
    0.3800    3.6451    8.2284 H   0  0  0  0  0  0  0  0  0  0  0  0
    2.3912    4.8886    9.7604 H   0  0  0  0  0  0  0  0  0  0  0  0
    4.8234    2.1069   14.1488 H   0  0  0  0  0  0  0  0  0  0  0  0
    6.6426    3.9657   13.5208 H   0  0  0  0  0  0  0  0  0  0  0  0
    6.6623    5.9444   11.5903 H   0  0  0  0  0  0  0  0  0  0  0  0
    4.2922    0.0225   14.2855 H   0  0  0  0  0  0  0  0  0  0  0  0
    3.3460   -1.8615   15.5263 H   0  0  0  0  0  0  0  0  0  0  0  0
    0.9514   -2.2879   15.5391 H   0  0  0  0  0  0  0  0  0  0  0  0
    0.3251    1.2112   13.0631 H   0  0  0  0  0  0  0  0  0  0  0  0
   -0.5895   -2.7113   14.8468 H   0  0  0  0  0  0  0  0  0  0  0  0
   -1.9497   -4.2121   16.0145 H   0  0  0  0  0  0  0  0  0  0  0  0
   -4.0669   -5.4891   16.0482 H   0  0  0  0  0  0  0  0  0  0  0  0
   -5.9355   -4.8554   14.5523 H   0  0  0  0  0  0  0  0  0  0  0  0
   -3.5819   -1.6071   12.9694 H   0  0  0  0  0  0  0  0  0  0  0  0
    0.3519    4.8218   12.3523 H   0  0  0  0  0  0  0  0  0  0  0  0
   -2.4494    5.7484   14.4380 H   0  0  0  0  0  0  0  0  0  0  0  0
   -1.0047    4.8038   14.1159 H   0  0  0  0  0  0  0  0  0  0  0  0
   -1.1911    6.4192   13.4050 H   0  0  0  0  0  0  0  0  0  0  0  0
  1  2  1  0
  1 39  1  0
  1 40  1  0
  1 41  1  0
  2  3  1  0
  3  4  2  0
  3 36  1  0
  4  5  1  0
  4 42  1  0
  5  6  2  0
  5 43  1  0
  6  7  1  0
  6 35  1  0
  7  8  1  0
  7 44  1  0
  8  9  2  0
  8 16  1  0
  9 10  1  0
 10 11  2  0
 10 17  1  0
 11 12  1  0
 11 45  1  0
 12 13  1  0
 12 16  1  0
 13 14  2  0
 13 46  1  0
 14 15  1  0
 14 47  1  0
 15 16  2  0
 17 18  2  0
 17 22  1  0
 18 19  1  0
 18 48  1  0
 19 20  2  0
 19 49  1  0
 20 21  1  0
 20 50  1  0
 21 22  2  0
 21 23  1  0
 22 51  1  0
 23 24  2  0
 23 25  1  0
 25 26  1  0
 25 52  1  0
 26 27  2  0
 26 31  1  0
 27 28  1  0
 27 53  1  0
 28 29  2  0
 28 54  1  0
 29 30  1  0
 29 55  1  0
 30 31  2  0
 30 32  1  0
 31 56  1  0
 32 33  2  0
 32 34  1  0
 35 36  2  0
 35 57  1  0
 36 37  1  0
 37 38  1  0
 38 58  1  0
 38 59  1  0
 38 60  1  0
M  CHG  1  34  -1
M  END
>  <s_m_entry_id>  (1) 
693

>  <IC50[nM]>  (1) 
8.9

>  <s_m_Source_Path>  (1) 
/projects/mai/users/kmzp800_harry/pmx_colab/docking_jobs/syk

>  <s_m_Source_File>  (1) 
tnks2_lig.sdf

>  <i_m_Source_File_Index>  (1) 
14

>  <s_m_job_name>  (1) 
glide-dock_SP_tnks2_no_const

>  <r_i_docking_score>  (1) 
-7.01472591182011

>  <r_i_glide_gscore>  (1) 
-7.01472591182011

>  <r_i_glide_emodel>  (1) 
-86.7533503996569

>  <index_string>  (1) 
13:0:0

$$$$
