10:0:0
     RDKit          3D

 48 50  0  0  1  0  0  0  0  0999 V2000
   39.1891   17.5187   12.6742 O   0  0  0  0  0  0  0  0  0  0  0  0
   40.3574   17.0717   12.6867 C   0  0  0  0  0  0  0  0  0  0  0  0
   41.2197   17.3103   11.8087 O   0  0  0  0  0  0  0  0  0  0  0  0
   40.7459   16.1387   13.8376 C   0  0  0  0  0  0  0  0  0  0  0  0
   42.1101   15.7428   13.7399 O   0  0  0  0  0  0  0  0  0  0  0  0
   42.5184   14.9344   14.7438 C   0  0  0  0  0  0  0  0  0  0  0  0
   42.1670   13.5682   14.8750 C   0  0  0  0  0  0  0  0  0  0  0  0
   41.1727   12.6865   13.5406 Br  0  0  0  0  0  0  0  0  0  0  0  0
   42.6163   12.9424   15.9987 C   0  0  0  0  0  0  0  0  0  0  0  0
   42.3466   11.5957   16.4701 C   0  0  0  0  0  0  0  0  0  0  0  0
   43.3843   10.7708   16.9425 C   0  0  0  0  0  0  0  0  0  0  0  0
   43.1083    9.4673   17.3833 C   0  0  0  0  0  0  0  0  0  0  0  0
   41.7946    8.9897   17.3514 C   0  0  0  0  0  0  0  0  0  0  0  0
   40.7419    9.7900   16.8646 C   0  0  0  0  0  0  0  0  0  0  0  0
   39.4115    9.3687   16.7952 N   0  0  0  0  0  0  0  0  0  0  0  0
   41.0294   11.0948   16.4386 C   0  0  0  0  0  0  0  0  0  0  0  0
   43.6301   14.0195   16.9098 S   0  0  0  0  0  0  0  0  0  0  0  0
   43.3527   15.3199   15.7603 C   0  0  0  0  0  0  0  0  0  0  0  0
   44.0103   16.5919   16.0418 C   0  0  0  0  0  0  0  0  0  0  0  0
   43.8364   17.5590   15.2644 O   0  0  0  0  0  0  0  0  0  0  0  0
   44.7445   16.6850   17.0480 O   0  0  0  0  0  0  0  0  0  0  0  0
   40.5413   16.6340   14.7881 H   0  0  0  0  0  0  0  0  0  0  0  0
   40.1235   15.2525   13.7979 H   0  0  0  0  0  0  0  0  0  0  0  0
   44.3972   11.1368   16.9724 H   0  0  0  0  0  0  0  0  0  0  0  0
   43.8994    8.8381   17.7574 H   0  0  0  0  0  0  0  0  0  0  0  0
   41.6414    8.0100   17.7413 H   0  0  0  0  0  0  0  0  0  0  0  0
   38.7316    9.9660   16.3483 H   0  0  0  0  0  0  0  0  0  0  0  0
   39.2556    7.9282   18.2251 H   0  0  0  0  0  0  0  0  0  0  0  0
   40.2240   11.7240   16.0900 H   0  0  0  0  0  0  0  0  0  0  0  0
   38.9898    8.0285   17.1728 C   0  0  0  0  0  0  0  0  0  0  0  0
   37.4570    7.8901   17.0874 C   0  0  0  0  0  0  0  0  0  0  0  0
   36.8470    8.2463   15.7202 C   0  0  0  0  0  0  0  0  0  0  0  0
   37.4003    7.4486   14.5271 C   0  0  0  0  0  0  0  0  0  0  0  0
   38.8202    7.8807   14.1268 C   0  0  0  0  0  0  0  0  0  0  0  0
   39.9568    7.1815   14.8932 C   0  0  0  0  0  0  0  0  0  0  0  0
   39.7025    6.9066   16.3849 C   0  0  0  0  0  0  0  0  0  0  0  0
   37.1659    6.8746   17.3614 H   0  0  0  0  0  0  0  0  0  0  0  0
   37.0036    8.5327   17.8424 H   0  0  0  0  0  0  0  0  0  0  0  0
   35.7775    8.0711   15.7782 H   0  0  0  0  0  0  0  0  0  0  0  0
   36.9586    9.3142   15.5316 H   0  0  0  0  0  0  0  0  0  0  0  0
   37.3543    6.3753   14.7158 H   0  0  0  0  0  0  0  0  0  0  0  0
   36.7444    7.6316   13.6772 H   0  0  0  0  0  0  0  0  0  0  0  0
   38.9692    7.6891   13.0665 H   0  0  0  0  0  0  0  0  0  0  0  0
   38.9138    8.9624   14.2336 H   0  0  0  0  0  0  0  0  0  0  0  0
   40.1833    6.2341   14.4072 H   0  0  0  0  0  0  0  0  0  0  0  0
   40.8647    7.7804   14.7966 H   0  0  0  0  0  0  0  0  0  0  0  0
   40.6566    6.6726   16.8255 H   0  0  0  0  0  0  0  0  0  0  0  0
   39.1682    5.9717   16.5156 H   0  0  0  0  0  0  0  0  0  0  0  0
  1  2  2  0
  2  3  1  0
  2  4  1  0
  4  5  1  0
  4 22  1  0
  4 23  1  0
  5  6  1  0
  6  7  1  0
  6 18  2  0
  7  8  1  0
  7  9  2  0
  9 10  1  0
  9 17  1  0
 10 11  2  0
 10 16  1  0
 11 12  1  0
 11 24  1  0
 12 13  2  0
 12 25  1  0
 13 14  1  0
 13 26  1  0
 14 15  1  0
 14 16  2  0
 15 27  1  0
 15 30  1  0
 16 29  1  0
 17 18  1  0
 18 19  1  0
 19 20  2  0
 19 21  1  0
 28 30  1  0
 30 31  1  0
 30 36  1  0
 31 32  1  0
 31 37  1  0
 31 38  1  0
 32 33  1  0
 32 39  1  0
 32 40  1  0
 33 34  1  0
 33 41  1  0
 33 42  1  0
 34 35  1  0
 34 43  1  0
 34 44  1  0
 35 36  1  0
 35 45  1  0
 35 46  1  0
 36 47  1  0
 36 48  1  0
M  CHG  2   3  -1  21  -1
M  END
>  <s_m_entry_id>  (1) 
527

>  <s_m_Source_Path>  (1) 
/projects/mai/users/kmzp800_harry/pmx_colab/docking_jobs/ptp1b/glide-dock_SP_ptp1b_mcs_2

>  <s_m_Source_File>  (1) 
glide-dock_SP_ptp1b_mcs_2_pv.maegz

>  <i_m_Source_File_Index>  (1) 
12

>  <r_i_docking_score>  (1) 
-6.73260337019948

>  <r_i_glide_gscore>  (1) 
-6.73260337019948

>  <r_i_glide_emodel>  (1) 
-84.0685420071205

>  <index_string>  (1) 
10:0:0

$$$$
