31:0:0
     RDKit          3D

 51 54  0  0  1  0  0  0  0  0999 V2000
    5.6030   -0.5930   16.2990 C   0  0  0  0  0  0  0  0  0  0  0  0
    4.3310   -1.0590   16.2120 N   0  0  0  0  0  0  0  0  0  0  0  0
    3.7940   -0.3290   15.2200 C   0  0  0  0  0  0  0  0  0  0  0  0
    2.4940   -0.4150   14.7290 C   0  0  0  0  0  0  0  0  0  0  0  0
    1.5660   -1.3570   15.2860 N   0  0  0  0  0  0  0  0  0  0  0  0
    2.1450    0.4240   13.7100 N   0  0  0  0  0  0  0  0  0  0  0  0
    3.0250    1.3280   13.1720 C   0  0  0  0  0  0  0  0  0  0  0  0
    4.3330    1.3940   13.6870 C   0  0  0  0  0  0  0  0  0  0  0  0
    4.6530    0.5510   14.6970 N   0  0  0  0  0  0  0  0  0  0  0  0
    5.8100    0.4110   15.3560 C   0  0  0  0  0  0  0  0  0  0  0  0
    2.5930    2.2130   12.0700 C   0  0  0  0  0  0  0  0  0  0  0  0
    3.5200    2.6580   11.1220 C   0  0  0  0  0  0  0  0  0  0  0  0
    3.1190    3.4940   10.0800 C   0  0  0  0  0  0  0  0  0  0  0  0
    1.7870    3.8990    9.9640 C   0  0  0  0  0  0  0  0  0  0  0  0
    1.4410    4.7920    8.8200 C   0  0  0  0  0  0  0  0  0  0  0  0
    0.8300    3.4580   10.9140 C   0  0  0  0  0  0  0  0  0  0  0  0
    1.2560    2.6190   11.9550 C   0  0  0  0  0  0  0  0  0  0  0  0
   -0.6050    3.8390   10.8690 C   0  0  0  0  0  0  0  0  0  0  0  0
   -1.3430    3.4970    9.9080 O   0  0  0  0  0  0  0  0  0  0  0  0
   -1.1730    4.6050   11.9280 N   0  0  0  0  0  0  0  0  0  0  0  0
    0.2030   -1.5650   14.8930 C   0  0  0  0  0  0  0  0  0  0  0  0
   -0.4580   -2.7800   15.1140 C   0  0  0  0  0  0  0  0  0  0  0  0
   -1.7860   -2.9430   14.7170 C   0  0  0  0  0  0  0  0  0  0  0  0
   -2.4750   -1.8930   14.0900 C   0  0  0  0  0  0  0  0  0  0  0  0
   -1.8200   -0.6730   13.8640 C   0  0  0  0  0  0  0  0  0  0  0  0
   -0.4830   -0.5190   14.2690 C   0  0  0  0  0  0  0  0  0  0  0  0
   -3.8070   -2.0380   13.6840 O   0  0  0  0  0  0  0  0  0  0  0  0
   -4.2400   -3.0890   12.8300 C   0  0  0  0  0  0  0  0  0  0  0  0
   -2.5120    0.3700   13.2380 O   0  0  0  0  0  0  0  0  0  0  0  0
   -2.0700    0.9710   12.0290 C   0  0  0  0  0  0  0  0  0  0  0  0
    6.3598   -0.9554   17.0103 H   0  0  0  0  0  0  0  0  0  0  0  0
    1.9176   -1.9487   16.0523 H   0  0  0  0  0  0  0  0  0  0  0  0
    5.0690    2.1050   13.2835 H   0  0  0  0  0  0  0  0  0  0  0  0
    6.7385    0.9760   15.1866 H   0  0  0  0  0  0  0  0  0  0  0  0
    4.5722    2.3466   11.1987 H   0  0  0  0  0  0  0  0  0  0  0  0
    3.8589    3.8378    9.3422 H   0  0  0  0  0  0  0  0  0  0  0  0
    1.0687    5.7530    9.2046 H   0  0  0  0  0  0  0  0  0  0  0  0
    2.3371    4.9652    8.2060 H   0  0  0  0  0  0  0  0  0  0  0  0
    0.6621    4.3162    8.2060 H   0  0  0  0  0  0  0  0  0  0  0  0
    0.5235    2.2716   12.6985 H   0  0  0  0  0  0  0  0  0  0  0  0
   -2.1681    4.8690   11.8964 H   0  0  0  0  0  0  0  0  0  0  0  0
   -0.5884    4.8947   12.7250 H   0  0  0  0  0  0  0  0  0  0  0  0
    0.0725   -3.6102   15.6031 H   0  0  0  0  0  0  0  0  0  0  0  0
   -2.2962   -3.9008   14.8967 H   0  0  0  0  0  0  0  0  0  0  0  0
    0.0306    0.4376   14.0926 H   0  0  0  0  0  0  0  0  0  0  0  0
   -4.5890   -3.9360   13.4389 H   0  0  0  0  0  0  0  0  0  0  0  0
   -5.0635   -2.7299   12.1952 H   0  0  0  0  0  0  0  0  0  0  0  0
   -3.4026   -3.4142   12.1952 H   0  0  0  0  0  0  0  0  0  0  0  0
   -1.4330    1.8371   12.2616 H   0  0  0  0  0  0  0  0  0  0  0  0
   -1.4938    0.2385   11.4447 H   0  0  0  0  0  0  0  0  0  0  0  0
   -2.9409    1.3027   11.4447 H   0  0  0  0  0  0  0  0  0  0  0  0
  1  2  1  0
  1 10  2  0
  2  3  2  0
  3  4  1  0
  3  9  1  0
  4  5  1  0
  4  6  2  0
  5 21  1  0
  6  7  1  0
  7  8  2  0
  7 11  1  0
  8  9  1  0
  9 10  1  0
 11 12  2  0
 11 17  1  0
 12 13  1  0
 13 14  2  0
 14 16  1  0
 14 15  1  0
 16 17  2  0
 16 18  1  0
 18 20  1  0
 18 19  2  0
 21 22  2  0
 21 26  1  0
 22 23  1  0
 23 24  2  0
 24 25  1  0
 24 27  1  0
 25 26  2  0
 25 29  1  0
 27 28  1  0
 29 30  1  0
  1 31  1  0
  5 32  1  0
  8 33  1  0
 10 34  1  0
 12 35  1  0
 13 36  1  0
 15 37  1  0
 15 38  1  0
 15 39  1  0
 17 40  1  0
 20 41  1  0
 20 42  1  0
 22 43  1  0
 23 44  1  0
 26 45  1  0
 28 46  1  0
 28 47  1  0
 28 48  1  0
 30 49  1  0
 30 50  1  0
 30 51  1  0
M  END
>  <s_m_entry_id>  (1) 
32

>  <MODEL>  (1) 
1

>  <REMARK>  (1) 
 VINA RESULT:    -9.193      0.000      0.000
 INTER + INTRA:         -12.229
 INTER:                 -11.880
 INTRA:                  -0.348
 UNBOUND:                -0.348
  Name = /scratch/kmzp800/tmppbhr_mcs/tmpcbv6yqfn.pdb
  8 active torsions:
  status: ('A' for Active; 'I' for Inactive)
    1  A    between atoms: N2_5  and  C4_6
    2  A    between atoms: C7_9  and  O1_10
    3  A    between atoms: O1_10  and  C8_11
    4  A    between atoms: C9_12  and  O2_13
    5  A    between atoms: O2_13  and  C10_14
    6  A    between atoms: C12_17  and  C13_18
    7  A    between atoms: C16_21  and  C17_22
    8  A    between atoms: C18_23  and  C19_24
                            x       y       z     vdW  Elec       q    Type
                         _______ _______ _______ _____ _____    ______ ____

>  <TORSDO>  (1) 
F 5

>  <grid_id>  (1) 
syk-prepared

>  <grid_path>  (1) 
syk_vina.pdbqt

>  <grid_filename>  (1) 
syk_vina.pdbqt

>  <docking_score>  (1) 
-9.193

>  <compound_name>  (1) 
CHEMBL3265009

>  <index_string>  (1) 
31:0:0

>  <s_m_Source_Path>  (1) 
/projects/mai/users/kmzp800_harry/pmx_colab/docking_jobs/syk/vina_prep/output

>  <s_m_Source_File>  (1) 
ptp1b_docked_conformers.sdf

>  <i_m_Source_File_Index>  (1) 
32

$$$$
