35:0:0
     RDKit          3D

 68 72  0  0  1  0  0  0  0  0999 V2000
    0.8110   -0.8770   14.4400 C   0  0  0  0  0  0  0  0  0  0  0  0
    0.4030   -2.0670   15.0620 C   0  0  0  0  0  0  0  0  0  0  0  0
   -0.9210   -2.5020   14.9530 C   0  0  0  0  0  0  0  0  0  0  0  0
   -1.8470   -1.7530   14.2200 C   0  0  0  0  0  0  0  0  0  0  0  0
   -1.4540   -0.5640   13.5910 C   0  0  0  0  0  0  0  0  0  0  0  0
   -0.1270   -0.1360   13.7080 C   0  0  0  0  0  0  0  0  0  0  0  0
    6.4140    0.1520   15.9850 C   0  0  0  0  0  0  0  0  0  0  0  0
    6.0770    0.8420   14.8660 N   0  0  0  0  0  0  0  0  0  0  0  0
    4.7920    0.5060   14.6620 C   0  0  0  0  0  0  0  0  0  0  0  0
    3.9650    0.9530   13.6350 C   0  0  0  0  0  0  0  0  0  0  0  0
    4.4550    1.8440   12.6250 N   0  0  0  0  0  0  0  0  0  0  0  0
    2.6870    0.4770   13.6020 N   0  0  0  0  0  0  0  0  0  0  0  0
    2.2030   -0.3950   14.5410 C   0  0  0  0  0  0  0  0  0  0  0  0
    3.0550   -0.8210   15.5780 C   0  0  0  0  0  0  0  0  0  0  0  0
    4.3220   -0.3410   15.5820 N   0  0  0  0  0  0  0  0  0  0  0  0
    5.3240   -0.5890   16.4370 C   0  0  0  0  0  0  0  0  0  0  0  0
    3.6460    2.5500   11.6750 C   0  0  0  0  0  0  0  0  0  0  0  0
    4.2330    3.0240   10.5000 C   0  0  0  0  0  0  0  0  0  0  0  0
    3.4680    3.7230    9.5620 C   0  0  0  0  0  0  0  0  0  0  0  0
    2.1040    3.9690    9.7940 C   0  0  0  0  0  0  0  0  0  0  0  0
    1.5140    3.5160   10.9830 C   0  0  0  0  0  0  0  0  0  0  0  0
    2.2880    2.8080   11.9150 C   0  0  0  0  0  0  0  0  0  0  0  0
    1.3230    4.6610    8.8640 O   0  0  0  0  0  0  0  0  0  0  0  0
    1.3450    6.0780    8.7420 C   0  0  0  0  0  0  0  0  0  0  0  0
    0.1610    3.7860   11.2220 O   0  0  0  0  0  0  0  0  0  0  0  0
   -0.3350    5.1030   11.4240 C   0  0  0  0  0  0  0  0  0  0  0  0
   -2.4170    0.2320   12.8110 C   0  0  0  0  0  0  0  0  0  0  0  0
   -3.5230   -0.2700   12.4750 O   0  0  0  0  0  0  0  0  0  0  0  0
   -2.0790    1.5770   12.4350 N   0  0  0  0  0  0  0  0  0  0  0  0
   -2.9140    2.5200   11.7530 C   0  0  0  0  0  0  0  0  0  0  0  0
   -3.5100    3.5460   12.4920 C   0  0  0  0  0  0  0  0  0  0  0  0
   -4.3410    4.4780   11.8660 C   0  0  0  0  0  0  0  0  0  0  0  0
   -4.5810    4.4030   10.4860 C   0  0  0  0  0  0  0  0  0  0  0  0
   -4.0000    3.3620    9.7510 C   0  0  0  0  0  0  0  0  0  0  0  0
   -3.1690    2.4290   10.3780 C   0  0  0  0  0  0  0  0  0  0  0  0
   -5.4950    5.3750    9.8490 C   0  0  0  0  0  0  0  0  0  0  0  0
   -5.5620    6.5430   10.3190 O   0  0  0  0  0  0  0  0  0  0  0  0
   -6.3230    5.0490    8.7250 N   0  0  0  0  0  0  0  0  0  0  0  0
   -5.9290    5.3260    7.0580 S   0  0  0  0  0  6  0  0  0  0  0  0
   -7.0710    6.0500    6.4030 O   0  0  0  0  0  0  0  0  0  0  0  0
   -4.6970    6.1800    6.9560 O   0  0  0  0  0  0  0  0  0  0  0  0
   -5.6690    3.7780    6.2230 C   0  0  0  0  0  0  0  0  0  0  0  0
    1.1285   -2.6602   15.6380 H   0  0  0  0  0  0  0  0  0  0  0  0
   -1.2349   -3.4347   15.4444 H   0  0  0  0  0  0  0  0  0  0  0  0
   -2.8880   -2.0986   14.1369 H   0  0  0  0  0  0  0  0  0  0  0  0
    0.1854    0.7976   13.2173 H   0  0  0  0  0  0  0  0  0  0  0  0
    7.4034    0.1744   16.4652 H   0  0  0  0  0  0  0  0  0  0  0  0
    5.4736    1.9893   12.5777 H   0  0  0  0  0  0  0  0  0  0  0  0
    2.7054   -1.5167   16.3550 H   0  0  0  0  0  0  0  0  0  0  0  0
    5.2922   -1.2459   17.3188 H   0  0  0  0  0  0  0  0  0  0  0  0
    5.3021    2.8465   10.3118 H   0  0  0  0  0  0  0  0  0  0  0  0
    3.9374    4.0834    8.6348 H   0  0  0  0  0  0  0  0  0  0  0  0
    1.8239    2.4506   12.8460 H   0  0  0  0  0  0  0  0  0  0  0  0
    1.3521    6.5322    9.7438 H   0  0  0  0  0  0  0  0  0  0  0  0
    2.2480    6.3849    8.1939 H   0  0  0  0  0  0  0  0  0  0  0  0
    0.4519    6.4127    8.1939 H   0  0  0  0  0  0  0  0  0  0  0  0
   -0.4110    5.3048   12.5027 H   0  0  0  0  0  0  0  0  0  0  0  0
    0.3516    5.8282   10.9628 H   0  0  0  0  0  0  0  0  0  0  0  0
   -1.3294    5.1951   10.9628 H   0  0  0  0  0  0  0  0  0  0  0  0
   -1.1324    1.8983   12.6831 H   0  0  0  0  0  0  0  0  0  0  0  0
   -3.3234    3.6199   13.5735 H   0  0  0  0  0  0  0  0  0  0  0  0
   -4.8105    5.2764   12.4594 H   0  0  0  0  0  0  0  0  0  0  0  0
   -4.1990    3.2779    8.6724 H   0  0  0  0  0  0  0  0  0  0  0  0
   -2.7130    1.6194    9.7892 H   0  0  0  0  0  0  0  0  0  0  0  0
   -7.2335    4.6110    8.9249 H   0  0  0  0  0  0  0  0  0  0  0  0
   -5.5347    2.9784    6.9664 H   0  0  0  0  0  0  0  0  0  0  0  0
   -6.5415    3.5502    5.5930 H   0  0  0  0  0  0  0  0  0  0  0  0
   -4.7700    3.8477    5.5930 H   0  0  0  0  0  0  0  0  0  0  0  0
  1 13  1  0
  1  2  2  0
  1  6  1  0
  2  3  1  0
  3  4  2  0
  4  5  1  0
  5  6  2  0
  5 27  1  0
  7 16  2  0
  7  8  1  0
  8  9  2  0
  9 15  1  0
  9 10  1  0
 10 11  1  0
 10 12  2  0
 11 17  1  0
 12 13  1  0
 13 14  2  0
 14 15  1  0
 15 16  1  0
 17 22  1  0
 17 18  2  0
 18 19  1  0
 19 20  2  0
 20 21  1  0
 20 23  1  0
 21 25  1  0
 21 22  2  0
 23 24  1  0
 25 26  1  0
 27 28  2  0
 27 29  1  0
 29 30  1  0
 30 31  2  0
 30 35  1  0
 31 32  1  0
 32 33  2  0
 33 34  1  0
 33 36  1  0
 34 35  2  0
 36 37  2  0
 36 38  1  0
 38 39  1  0
 39 40  2  0
 39 41  2  0
 39 42  1  0
  2 43  1  0
  3 44  1  0
  4 45  1  0
  6 46  1  0
  7 47  1  0
 11 48  1  0
 14 49  1  0
 16 50  1  0
 18 51  1  0
 19 52  1  0
 22 53  1  0
 24 54  1  0
 24 55  1  0
 24 56  1  0
 26 57  1  0
 26 58  1  0
 26 59  1  0
 29 60  1  0
 31 61  1  0
 32 62  1  0
 34 63  1  0
 35 64  1  0
 38 65  1  0
 42 66  1  0
 42 67  1  0
 42 68  1  0
M  END
>  <s_m_entry_id>  (1) 
1037

>  <MODEL>  (1) 
1

>  <REMARK>  (1) 
 VINA RESULT:    -9.588      0.000      0.000
 INTER + INTRA:         -13.507
 INTER:                 -12.210
 INTRA:                  -1.297
 UNBOUND:                 1.126
  Name = /scratch/kmzp800/tmpfvlj4djh/tmpf5u7qmmo.pdb
  12 active torsions:
  status: ('A' for Active; 'I' for Inactive)
    1  A    between atoms: N2_5  and  C4_6
    2  A    between atoms: C7_9  and  O1_10
    3  A    between atoms: O1_10  and  C8_11
    4  A    between atoms: C9_12  and  O2_13
    5  A    between atoms: O2_13  and  C10_14
    6  A    between atoms: C12_17  and  C13_18
    7  A    between atoms: C17_22  and  C18_23
    8  A    between atoms: N4_25  and  C19_26
    9  A    between atoms: C22_29  and  C23_30
   10  A    between atoms: C23_30  and  N5_32
   11  A    between atoms: N5_32  and  S1_33
   12  A    between atoms: S1_33  and  C24_36
                            x       y       z     vdW  Elec       q    Type
                         _______ _______ _______ _____ _____    ______ ____

>  <TORSDO>  (1) 
F 9

>  <grid_id>  (1) 
syk-prepared

>  <grid_path>  (1) 
syk_vina.pdbqt

>  <grid_filename>  (1) 
syk_vina.pdbqt

>  <docking_score>  (1) 
-9.588

>  <compound_name>  (1) 
CHEMBL3265000

>  <index_string>  (1) 
35:0:0

>  <s_m_Source_Path>  (1) 
/projects/mai/users/kmzp800_harry/pmx_colab/docking_jobs/syk/vina_prep/output

>  <s_m_Source_File>  (1) 
ptp1b_docked_conformers.sdf

>  <i_m_Source_File_Index>  (1) 
861

$$$$
