13:0:0
     RDKit          3D

 46 49  0  0  1  0  0  0  0  0999 V2000
   35.0129   35.4276   15.6622 F   0  0  0  0  0  0  0  0  0  0  0  0
   36.0997   35.7494   16.4027 C   0  0  0  0  0  0  0  0  0  0  0  0
   37.2969   36.1059   15.7614 C   0  0  0  0  0  0  0  0  0  0  0  0
   38.4491   36.3485   16.5176 C   0  0  0  0  0  0  0  0  0  0  0  0
   38.4202   36.2377   17.9176 C   0  0  0  0  0  0  0  0  0  0  0  0
   37.2108   35.9494   18.5718 C   0  0  0  0  0  0  0  0  0  0  0  0
   36.0452   35.6992   17.8122 C   0  0  0  0  0  0  0  0  0  0  0  0
   34.5683   35.1502   18.6028 S   0  0  0  0  0  0  0  0  0  0  0  0
   34.5842   35.9896   20.1655 C   0  0  0  0  0  0  0  0  0  0  0  0
   34.7953   37.3071   20.3224 C   0  0  0  0  0  0  0  0  0  0  0  0
   34.2445   35.0929   21.2785 C   0  0  0  0  0  0  0  0  0  0  0  0
   34.1129   33.8764   21.1308 O   0  0  0  0  0  0  0  0  0  0  0  0
   34.1082   35.6871   22.5027 N   0  0  0  0  0  0  0  0  0  0  0  0
   33.7880   34.8675   23.6832 C   0  0  0  0  0  0  0  0  0  0  0  0
   34.2600   37.0983   22.7189 C   0  0  0  0  0  0  0  0  0  0  0  0
   34.6354   37.9143   21.6324 C   0  0  0  0  0  0  0  0  0  0  0  0
   34.0391   37.6662   23.9244 N   0  0  0  0  0  0  0  0  0  0  0  0
   34.1761   38.9867   24.0437 C   0  0  0  0  0  0  0  0  0  0  0  0
   34.5496   39.8338   23.0847 N   0  0  0  0  0  0  0  0  0  0  0  0
   34.7799   39.2936   21.8709 C   0  0  0  0  0  0  0  0  0  0  0  0
   33.8939   39.5488   25.2714 N   0  0  0  0  0  0  0  0  0  0  0  0
   33.2436   38.8519   26.3748 C   0  0  0  0  0  0  0  0  0  0  0  0
   33.4423   39.6069   27.6959 C   0  0  0  0  0  0  0  0  0  0  0  0
   32.7142   38.8782   28.8369 C   0  0  0  0  0  0  0  0  0  0  0  0
   31.3314   38.7486   28.5264 O   0  0  0  0  0  0  0  0  0  0  0  0
   31.0838   37.9867   27.3506 C   0  0  0  0  0  0  0  0  0  0  0  0
   31.7345   38.6679   26.1356 C   0  0  0  0  0  0  0  0  0  0  0  0
   37.3536   36.1862   14.6894 H   0  0  0  0  0  0  0  0  0  0  0  0
   39.3525   36.6177   16.0070 H   0  0  0  0  0  0  0  0  0  0  0  0
   39.3287   36.3533   18.4900 H   0  0  0  0  0  0  0  0  0  0  0  0
   37.2053   35.8594   19.6487 H   0  0  0  0  0  0  0  0  0  0  0  0
   35.0150   37.9483   19.4813 H   0  0  0  0  0  0  0  0  0  0  0  0
   34.5366   35.0162   24.4624 H   0  0  0  0  0  0  0  0  0  0  0  0
   32.8234   35.1721   24.0885 H   0  0  0  0  0  0  0  0  0  0  0  0
   33.7310   33.7937   23.5030 H   0  0  0  0  0  0  0  0  0  0  0  0
   35.0631   39.9582   21.0730 H   0  0  0  0  0  0  0  0  0  0  0  0
   33.9660   40.5590   25.3422 H   0  0  0  0  0  0  0  0  0  0  0  0
   33.7064   37.8687   26.4785 H   0  0  0  0  0  0  0  0  0  0  0  0
   34.5038   39.6961   27.9312 H   0  0  0  0  0  0  0  0  0  0  0  0
   33.0569   40.6250   27.6093 H   0  0  0  0  0  0  0  0  0  0  0  0
   33.1508   37.8932   29.0140 H   0  0  0  0  0  0  0  0  0  0  0  0
   32.8180   39.4402   29.7646 H   0  0  0  0  0  0  0  0  0  0  0  0
   31.4675   36.9721   27.4734 H   0  0  0  0  0  0  0  0  0  0  0  0
   30.0076   37.9059   27.2047 H   0  0  0  0  0  0  0  0  0  0  0  0
   31.2597   39.6367   25.9683 H   0  0  0  0  0  0  0  0  0  0  0  0
   31.5571   38.0687   25.2413 H   0  0  0  0  0  0  0  0  0  0  0  0
  1  2  1  0
  2  7  2  0
  2  3  1  0
  3  4  2  0
  3 28  1  0
  4  5  1  0
  4 29  1  0
  5  6  2  0
  5 30  1  0
  6  7  1  0
  6 31  1  0
  7  8  1  0
  8  9  1  0
  9 10  2  0
  9 11  1  0
 10 16  1  0
 10 32  1  0
 11 12  2  0
 11 13  1  0
 13 14  1  0
 13 15  1  0
 14 33  1  0
 14 34  1  0
 14 35  1  0
 15 16  2  0
 15 17  1  0
 16 20  1  0
 17 18  2  0
 18 19  1  0
 18 21  1  0
 19 20  2  0
 20 36  1  0
 21 22  1  0
 21 37  1  0
 22 27  1  0
 22 23  1  0
 22 38  1  0
 23 24  1  0
 23 39  1  0
 23 40  1  0
 24 25  1  0
 24 41  1  0
 24 42  1  0
 25 26  1  0
 26 27  1  0
 26 43  1  0
 26 44  1  0
 27 45  1  0
 27 46  1  0
M  END
>  <s_m_entry_id>  (1) 
254

>  <i_f3d_flags>  (1) 
0

>  <r_lp_tautomer_probability>  (1) 
1

>  <r_epik_Ionization_Penalty>  (1) 
  0.0000

>  <r_epik_State_Penalty>  (1) 
  0.0000

>  <i_epik_Tot_Q>  (1) 
0

>  <s_m_job_name>  (1) 
glide-dock_SP_p38_core_cons_top_1

>  <r_i_docking_score>  (1) 
-7.45049467904627

>  <r_i_glide_gscore>  (1) 
-7.45049467904627

>  <r_i_glide_emodel>  (1) 
-57.1954515134588

>  <index_string>  (1) 
13:0:0

$$$$
