19:0:0
     RDKit          3D

 49 52  0  0  1  0  0  0  0  0999 V2000
   33.0830   39.5790   25.2370 N   0  0  0  0  0  0  0  0  0  0  0  0
   33.1600   38.9850   23.9400 C   0  0  0  0  0  0  0  0  0  0  0  0
   32.9860   39.7590   22.8360 N   0  0  0  0  0  0  0  0  0  0  0  0
   33.0550   39.2280   21.5880 C   0  0  0  0  0  0  0  0  0  0  0  0
   33.3070   37.8690   21.4290 C   0  0  0  0  0  0  0  0  0  0  0  0
   33.3780   37.2930   20.1660 C   0  0  0  0  0  0  0  0  0  0  0  0
   33.6210   35.9270   20.0380 C   0  0  0  0  0  0  0  0  0  0  0  0
   33.8290   35.1540   21.2010 C   0  0  0  0  0  0  0  0  0  0  0  0
   34.1140   33.9290   21.0970 O   0  0  0  0  0  0  0  0  0  0  0  0
   33.7470   35.7350   22.4400 N   0  0  0  0  0  0  0  0  0  0  0  0
   33.9500   34.9180   23.6340 C   0  0  0  0  0  0  0  0  0  0  0  0
   33.4890   37.0720   22.5720 C   0  0  0  0  0  0  0  0  0  0  0  0
   33.4100   37.6540   23.8020 N   0  0  0  0  0  0  0  0  0  0  0  0
   34.0780   39.6670   29.2370 C   0  0  0  0  0  0  0  0  0  0  0  0
   34.9240   39.9320   27.9850 C   0  0  0  0  0  0  0  0  0  0  0  0
   34.6940   38.8550   26.9270 C   0  0  0  0  0  0  0  0  0  0  0  0
   33.2300   38.8140   26.4670 C   0  0  0  0  0  0  0  0  0  0  0  0
   32.2410   39.3290   27.5260 C   0  0  0  0  0  0  0  0  0  0  0  0
   32.7260   39.0030   28.9360 C   0  0  0  0  0  0  0  0  0  0  0  0
   33.8720   40.8650   29.9180 O   0  0  0  0  0  0  0  0  0  0  0  0
   33.6910   35.3820   18.7480 O   0  0  0  0  0  0  0  0  0  0  0  0
   34.7880   35.4910   17.8810 C   0  0  0  0  0  0  0  0  0  0  0  0
   36.0430   35.7720   18.4320 C   0  0  0  0  0  0  0  0  0  0  0  0
   37.1660   35.9020   17.6110 C   0  0  0  0  0  0  0  0  0  0  0  0
   37.0400   35.7590   16.2270 C   0  0  0  0  0  0  0  0  0  0  0  0
   38.1280   35.8840   15.4310 F   0  0  0  0  0  0  0  0  0  0  0  0
   35.7870   35.5020   15.6640 C   0  0  0  0  0  0  0  0  0  0  0  0
   34.6610   35.3710   16.4810 C   0  0  0  0  0  0  0  0  0  0  0  0
   33.4520   35.1690   15.9030 F   0  0  0  0  0  0  0  0  0  0  0  0
   32.9161   40.5931   25.3049 H   0  0  0  0  0  0  0  0  0  0  0  0
   32.9122   39.8699   20.7062 H   0  0  0  0  0  0  0  0  0  0  0  0
   33.2425   37.9147   19.2687 H   0  0  0  0  0  0  0  0  0  0  0  0
   33.7966   35.5355   24.5313 H   0  0  0  0  0  0  0  0  0  0  0  0
   33.2315   34.0851   23.6349 H   0  0  0  0  0  0  0  0  0  0  0  0
   34.9748   34.5182   23.6349 H   0  0  0  0  0  0  0  0  0  0  0  0
   34.6429   38.9555   29.8573 H   0  0  0  0  0  0  0  0  0  0  0  0
   34.6488   40.9113   27.5663 H   0  0  0  0  0  0  0  0  0  0  0  0
   35.9858   39.9183   28.2719 H   0  0  0  0  0  0  0  0  0  0  0  0
   35.3348   39.0662   26.0582 H   0  0  0  0  0  0  0  0  0  0  0  0
   34.9411   37.8796   27.3714 H   0  0  0  0  0  0  0  0  0  0  0  0
   32.9801   37.7565   26.2959 H   0  0  0  0  0  0  0  0  0  0  0  0
   32.1410   40.4197   27.4238 H   0  0  0  0  0  0  0  0  0  0  0  0
   31.2710   38.8350   27.3674 H   0  0  0  0  0  0  0  0  0  0  0  0
   32.8344   37.9127   29.0329 H   0  0  0  0  0  0  0  0  0  0  0  0
   31.9860   39.3896   29.6522 H   0  0  0  0  0  0  0  0  0  0  0  0
   33.9005   40.6991   30.8936 H   0  0  0  0  0  0  0  0  0  0  0  0
   36.1464   35.8916   19.5206 H   0  0  0  0  0  0  0  0  0  0  0  0
   38.1495   36.1170   18.0544 H   0  0  0  0  0  0  0  0  0  0  0  0
   35.6867   35.4024   14.5731 H   0  0  0  0  0  0  0  0  0  0  0  0
  1  2  1  0
  1 17  1  0
  1 30  1  0
  2  3  2  0
  2 13  1  0
  3  4  1  0
  4  5  2  0
  4 31  1  0
  5 12  1  0
  5  6  1  0
  6  7  2  0
  6 32  1  0
  7  8  1  0
  7 21  1  0
  8 10  1  0
  8  9  2  0
 10 12  1  0
 10 11  1  0
 11 33  1  0
 11 34  1  0
 11 35  1  0
 12 13  2  0
 14 20  1  0
 14 15  1  0
 14 19  1  0
 14 36  1  0
 15 16  1  0
 15 37  1  0
 15 38  1  0
 16 17  1  0
 16 39  1  0
 16 40  1  0
 17 18  1  0
 17 41  1  0
 18 19  1  0
 18 42  1  0
 18 43  1  0
 19 44  1  0
 19 45  1  0
 20 46  1  0
 21 22  1  0
 22 23  2  0
 22 28  1  0
 23 24  1  0
 23 47  1  0
 24 25  2  0
 24 48  1  0
 25 26  1  0
 25 27  1  0
 27 28  2  0
 27 49  1  0
 28 29  1  0
M  END
>  <s_m_entry_id>  (1) 
1374

>  <MODEL>  (1) 
1

>  <REMARK>  (1) 
 VINA RESULT:    -8.523      0.000      0.000
 INTER + INTRA:         -10.898
 INTER:                 -10.266
 INTRA:                  -0.631
 UNBOUND:                -0.631
  Name = /scratch/kmzp800/tmpo7p7eh1l/tmpcimc2nvc.pdb
  5 active torsions:
  status: ('A' for Active; 'I' for Inactive)
    1  A    between atoms: O1_1  and  C1_2
    2  A    between atoms: C4_5  and  N1_6
    3  A    between atoms: C9_12  and  O2_13
    4  A    between atoms: O2_13  and  C10_14
    5  A    between atoms: N3_24  and  C17_25
                            x       y       z     vdW  Elec       q    Type
                         _______ _______ _______ _____ _____    ______ ____

>  <TORSDO>  (1) 
F 4

>  <grid_id>  (1) 
p38-prepared

>  <grid_path>  (1) 
/projects/mai/users/kmzp800_harry/pmx_colab/docking_jobs/p38/vina_docking/input_files/p38_vina.pdbqt

>  <grid_filename>  (1) 
p38_vina.pdbqt

>  <docking_score>  (1) 
-8.523

>  <compound_name>  (1) 
lig_p38a_2ff

>  <index_string>  (1) 
19:0:0

>  <s_m_Source_Path>  (1) 
/projects/mai/users/kmzp800_harry/pmx_colab/docking_jobs/p38

>  <s_m_Source_File>  (1) 
p38_confs_vina_naive.sdf

>  <i_m_Source_File_Index>  (1) 
21

$$$$
