25:0:0
     RDKit          3D

 64 68  0  0  1  0  0  0  0  0999 V2000
   34.3730   35.6510   21.1910 C   0  0  0  0  0  0  0  0  0  0  0  0
   35.3240   36.4540   21.8280 C   0  0  0  0  0  0  0  0  0  0  0  0
   35.1500   36.8160   23.1560 C   0  0  0  0  0  0  0  0  0  0  0  0
   36.0850   37.6120   23.8140 C   0  0  0  0  0  0  0  0  0  0  0  0
   35.8870   37.9500   25.1130 N   0  0  0  0  0  0  0  0  0  0  0  0
   34.7850   37.5230   25.7890 C   0  0  0  0  0  0  0  0  0  0  0  0
   34.5810   37.8860   27.1560 N   0  0  0  0  0  0  0  0  0  0  0  0
   33.8620   36.7500   25.1590 N   0  0  0  0  0  0  0  0  0  0  0  0
   34.0130   36.3800   23.8570 C   0  0  0  0  0  0  0  0  0  0  0  0
   33.0740   35.5960   23.2270 N   0  0  0  0  0  0  0  0  0  0  0  0
   33.2430   35.2350   21.9130 C   0  0  0  0  0  0  0  0  0  0  0  0
   32.3790   34.5190   21.3350 O   0  0  0  0  0  0  0  0  0  0  0  0
   35.5330   38.6840   27.9130 C   0  0  0  0  0  0  0  0  0  0  0  0
   35.5580   38.2300   29.3740 C   0  0  0  0  0  0  0  0  0  0  0  0
   36.3870   39.2220   30.1880 C   0  0  0  0  0  0  0  0  0  0  0  0
   35.8150   40.5050   30.1080 O   0  0  0  0  0  0  0  0  0  0  0  0
   36.0180   40.9600   28.7920 C   0  0  0  0  0  0  0  0  0  0  0  0
   35.1480   40.1580   27.8230 C   0  0  0  0  0  0  0  0  0  0  0  0
   31.8740   35.1160   23.9300 C   0  0  0  0  0  0  0  0  0  0  0  0
   32.1430   33.8220   24.7120 C   0  0  0  0  0  0  0  0  0  0  0  0
   32.0950   34.0690   26.2180 C   0  0  0  0  0  0  0  0  0  0  0  0
   30.7940   34.6020   26.6510 N   0  0  0  0  0  0  0  0  0  0  0  0
   30.2080   35.6000   25.7330 C   0  0  0  0  0  0  0  0  0  0  0  0
   31.2220   36.2180   24.7700 C   0  0  0  0  0  0  0  0  0  0  0  0
   31.0280   35.3700   28.1910 S   0  0  0  0  0  6  0  0  0  0  0  0
   30.1880   34.6820   29.2300 O   0  0  0  0  0  0  0  0  0  0  0  0
   30.6320   36.8190   28.1120 O   0  0  0  0  0  0  0  0  0  0  0  0
   32.7370   35.2560   28.6690 C   0  0  0  0  0  0  0  0  0  0  0  0
   34.4960   35.2730   19.8420 O   0  0  0  0  0  0  0  0  0  0  0  0
   37.9050   36.0760   18.5450 C   0  0  0  0  0  0  0  0  0  0  0  0
   36.8660   35.8180   19.4420 C   0  0  0  0  0  0  0  0  0  0  0  0
   35.5660   35.5550   18.9750 C   0  0  0  0  0  0  0  0  0  0  0  0
   35.3300   35.5410   17.5920 C   0  0  0  0  0  0  0  0  0  0  0  0
   34.0890   35.2790   17.1150 F   0  0  0  0  0  0  0  0  0  0  0  0
   36.3710   35.8000   16.6940 C   0  0  0  0  0  0  0  0  0  0  0  0
   37.6570   36.0690   17.1700 C   0  0  0  0  0  0  0  0  0  0  0  0
   38.6630   36.3190   16.2980 F   0  0  0  0  0  0  0  0  0  0  0  0
   36.2107   36.7989   21.2759 H   0  0  0  0  0  0  0  0  0  0  0  0
   36.9808   37.9653   23.2822 H   0  0  0  0  0  0  0  0  0  0  0  0
   33.7215   37.5684   27.6263 H   0  0  0  0  0  0  0  0  0  0  0  0
   36.5388   38.5478   27.4889 H   0  0  0  0  0  0  0  0  0  0  0  0
   34.5314   38.1967   29.7676 H   0  0  0  0  0  0  0  0  0  0  0  0
   36.0038   37.2268   29.4443 H   0  0  0  0  0  0  0  0  0  0  0  0
   36.4126   38.8993   31.2393 H   0  0  0  0  0  0  0  0  0  0  0  0
   37.4095   39.2561   29.7838 H   0  0  0  0  0  0  0  0  0  0  0  0
   35.7482   42.0245   28.7286 H   0  0  0  0  0  0  0  0  0  0  0  0
   37.0762   40.8275   28.5226 H   0  0  0  0  0  0  0  0  0  0  0  0
   35.3096   40.5194   26.7967 H   0  0  0  0  0  0  0  0  0  0  0  0
   34.0872   40.2818   28.0865 H   0  0  0  0  0  0  0  0  0  0  0  0
   31.1295   34.8482   23.1658 H   0  0  0  0  0  0  0  0  0  0  0  0
   31.3795   33.0762   24.4459 H   0  0  0  0  0  0  0  0  0  0  0  0
   33.1474   33.4580   24.4498 H   0  0  0  0  0  0  0  0  0  0  0  0
   32.2798   33.1182   26.7393 H   0  0  0  0  0  0  0  0  0  0  0  0
   32.8650   34.8153   26.4632 H   0  0  0  0  0  0  0  0  0  0  0  0
   29.4218   35.1083   25.1413 H   0  0  0  0  0  0  0  0  0  0  0  0
   29.8150   36.4178   26.3550 H   0  0  0  0  0  0  0  0  0  0  0  0
   31.9969   36.7466   25.3446 H   0  0  0  0  0  0  0  0  0  0  0  0
   30.7074   36.9269   24.1047 H   0  0  0  0  0  0  0  0  0  0  0  0
   32.8112   35.2510   29.7665 H   0  0  0  0  0  0  0  0  0  0  0  0
   33.1687   34.3271   28.2681 H   0  0  0  0  0  0  0  0  0  0  0  0
   33.2882   36.1194   28.2681 H   0  0  0  0  0  0  0  0  0  0  0  0
   38.9176   36.2845   18.9207 H   0  0  0  0  0  0  0  0  0  0  0  0
   37.0665   35.8206   20.5236 H   0  0  0  0  0  0  0  0  0  0  0  0
   36.1769   35.7919   15.6113 H   0  0  0  0  0  0  0  0  0  0  0  0
  1  2  2  0
  1 11  1  0
  1 29  1  0
  2  3  1  0
  3  4  2  0
  3  9  1  0
  4  5  1  0
  5  6  2  0
  6  7  1  0
  6  8  1  0
  7 13  1  0
  8  9  2  0
  9 10  1  0
 10 19  1  0
 10 11  1  0
 11 12  2  0
 13 14  1  0
 13 18  1  0
 14 15  1  0
 15 16  1  0
 16 17  1  0
 17 18  1  0
 19 20  1  0
 19 24  1  0
 20 21  1  0
 21 22  1  0
 22 25  1  0
 22 23  1  0
 23 24  1  0
 25 28  1  0
 25 26  2  0
 25 27  2  0
 29 32  1  0
 30 31  2  0
 30 36  1  0
 31 32  1  0
 32 33  2  0
 33 34  1  0
 33 35  1  0
 35 36  2  0
 36 37  1  0
  2 38  1  0
  4 39  1  0
  7 40  1  0
 13 41  1  0
 14 42  1  0
 14 43  1  0
 15 44  1  0
 15 45  1  0
 17 46  1  0
 17 47  1  0
 18 48  1  0
 18 49  1  0
 19 50  1  0
 20 51  1  0
 20 52  1  0
 21 53  1  0
 21 54  1  0
 23 55  1  0
 23 56  1  0
 24 57  1  0
 24 58  1  0
 28 59  1  0
 28 60  1  0
 28 61  1  0
 30 62  1  0
 31 63  1  0
 35 64  1  0
M  END
>  <s_m_entry_id>  (1) 
75

>  <MODEL>  (1) 
1

>  <REMARK>  (1) 
 VINA RESULT:    -8.976      0.000      0.000
 INTER + INTRA:         -11.471
 INTER:                 -11.453
 INTRA:                  -0.018
 UNBOUND:                 0.128
  Name = /scratch/kmzp800/tmp_37hbdfp/tmp03hizvki.pdb
  6 active torsions:
  status: ('A' for Active; 'I' for Inactive)
    1  A    between atoms: C3_3  and  O1_4
    2  A    between atoms: O1_4  and  C4_5
    3  A    between atoms: N2_11  and  C9_12
    4  A    between atoms: N4_20  and  C15_21
    5  A    between atoms: N5_24  and  S1_25
    6  A    between atoms: S1_25  and  C18_28
                            x       y       z     vdW  Elec       q    Type
                         _______ _______ _______ _____ _____    ______ ____

>  <TORSDO>  (1) 
F 5

>  <grid_id>  (1) 
p38-prepared

>  <grid_path>  (1) 
/projects/mai/users/kmzp800_harry/pmx_colab/docking_jobs/p38/vina_docking/input_files/p38_vina.pdbqt

>  <grid_filename>  (1) 
p38_vina.pdbqt

>  <docking_score>  (1) 
-8.976

>  <compound_name>  (1) 
lig_p38a_2u

>  <index_string>  (1) 
25:0:0

$$$$
