25:0:0
     RDKit          3D

 64 68  0  0  1  0  0  0  0  0999 V2000
   32.9470   34.5700   14.3418 F   0  0  0  0  0  0  0  0  0  0  0  0
   33.6017   34.8545   15.4887 C   0  0  0  0  0  0  0  0  0  0  0  0
   32.8763   35.1492   16.6448 C   0  0  0  0  0  0  0  0  0  0  0  0
   33.5224   35.2897   17.8794 C   0  0  0  0  0  0  0  0  0  0  0  0
   32.7601   35.4740   18.9849 F   0  0  0  0  0  0  0  0  0  0  0  0
   34.9392   35.2497   17.9228 C   0  0  0  0  0  0  0  0  0  0  0  0
   35.6682   35.1543   16.7302 C   0  0  0  0  0  0  0  0  0  0  0  0
   35.0011   34.8720   15.5366 C   0  0  0  0  0  0  0  0  0  0  0  0
   35.6724   35.2015   19.0722 O   0  0  0  0  0  0  0  0  0  0  0  0
   35.1697   35.8080   20.1706 C   0  0  0  0  0  0  0  0  0  0  0  0
   35.2647   37.1431   20.2759 C   0  0  0  0  0  0  0  0  0  0  0  0
   34.5521   34.9864   21.2195 C   0  0  0  0  0  0  0  0  0  0  0  0
   34.3597   33.7900   21.0215 O   0  0  0  0  0  0  0  0  0  0  0  0
   34.2021   35.6137   22.3885 N   0  0  0  0  0  0  0  0  0  0  0  0
   33.6724   34.7755   23.5138 C   0  0  0  0  0  0  0  0  0  0  0  0
   34.4793   34.8764   24.8295 C   0  0  0  0  0  0  0  0  0  0  0  0
   33.9242   33.9710   25.9458 C   0  0  0  0  0  0  0  0  0  0  0  0
   32.4508   34.0489   26.0732 N   0  0  0  0  0  0  0  0  0  0  0  0
   31.6516   34.0076   24.8317 C   0  0  0  0  0  0  0  0  0  0  0  0
   32.1777   35.0232   23.8019 C   0  0  0  0  0  0  0  0  0  0  0  0
   31.6823   34.2595   27.6147 S   0  0  0  0  0  0  0  0  0  0  0  0
   30.5357   33.3413   27.6747 O   0  0  0  0  0  0  0  0  0  0  0  0
   32.7222   34.2229   28.6552 O   0  0  0  0  0  0  0  0  0  0  0  0
   31.0364   35.9644   27.4959 C   0  0  0  0  0  0  0  0  0  0  0  0
   34.2888   37.0480   22.5436 C   0  0  0  0  0  0  0  0  0  0  0  0
   34.8130   37.8219   21.4819 C   0  0  0  0  0  0  0  0  0  0  0  0
   33.9003   37.6816   23.6704 N   0  0  0  0  0  0  0  0  0  0  0  0
   34.0315   39.0032   23.7530 C   0  0  0  0  0  0  0  0  0  0  0  0
   34.4965   39.8117   22.8040 N   0  0  0  0  0  0  0  0  0  0  0  0
   34.8825   39.2181   21.6570 C   0  0  0  0  0  0  0  0  0  0  0  0
   33.6681   39.6160   24.9323 N   0  0  0  0  0  0  0  0  0  0  0  0
   33.3759   38.9517   26.1943 C   0  0  0  0  0  0  0  0  0  0  0  0
   34.6548   38.4430   26.8812 C   0  0  0  0  0  0  0  0  0  0  0  0
   34.3247   37.8509   28.2641 C   0  0  0  0  0  0  0  0  0  0  0  0
   33.6667   38.8192   29.0768 O   0  0  0  0  0  0  0  0  0  0  0  0
   32.4290   39.2701   28.5332 C   0  0  0  0  0  0  0  0  0  0  0  0
   32.6832   39.9183   27.1664 C   0  0  0  0  0  0  0  0  0  0  0  0
   31.7966   35.1534   16.6113 H   0  0  0  0  0  0  0  0  0  0  0  0
   36.7472   35.1653   16.7501 H   0  0  0  0  0  0  0  0  0  0  0  0
   35.5994   34.6446   14.6886 H   0  0  0  0  0  0  0  0  0  0  0  0
   35.7258   37.7330   19.4950 H   0  0  0  0  0  0  0  0  0  0  0  0
   33.7358   33.7174   23.2610 H   0  0  0  0  0  0  0  0  0  0  0  0
   35.5232   34.6198   24.6462 H   0  0  0  0  0  0  0  0  0  0  0  0
   34.4821   35.8855   25.2239 H   0  0  0  0  0  0  0  0  0  0  0  0
   34.1992   32.9328   25.7805 H   0  0  0  0  0  0  0  0  0  0  0  0
   34.4029   34.2502   26.8837 H   0  0  0  0  0  0  0  0  0  0  0  0
   31.6856   32.9962   24.4226 H   0  0  0  0  0  0  0  0  0  0  0  0
   30.6044   34.2114   25.0628 H   0  0  0  0  0  0  0  0  0  0  0  0
   31.9996   36.0280   24.1848 H   0  0  0  0  0  0  0  0  0  0  0  0
   31.5971   34.9397   22.8820 H   0  0  0  0  0  0  0  0  0  0  0  0
   30.6971   36.2938   28.4773 H   0  0  0  0  0  0  0  0  0  0  0  0
   31.8178   36.6150   27.1252 H   0  0  0  0  0  0  0  0  0  0  0  0
   30.1960   35.9807   26.8028 H   0  0  0  0  0  0  0  0  0  0  0  0
   35.2718   39.8618   20.8829 H   0  0  0  0  0  0  0  0  0  0  0  0
   33.8183   40.6162   24.9900 H   0  0  0  0  0  0  0  0  0  0  0  0
   32.7147   38.1190   25.9761 H   0  0  0  0  0  0  0  0  0  0  0  0
   35.1606   37.7009   26.2664 H   0  0  0  0  0  0  0  0  0  0  0  0
   35.3621   39.2652   27.0039 H   0  0  0  0  0  0  0  0  0  0  0  0
   33.7009   36.9643   28.1672 H   0  0  0  0  0  0  0  0  0  0  0  0
   35.2345   37.5309   28.7691 H   0  0  0  0  0  0  0  0  0  0  0  0
   31.7158   38.4523   28.4682 H   0  0  0  0  0  0  0  0  0  0  0  0
   31.9941   40.0011   29.2154 H   0  0  0  0  0  0  0  0  0  0  0  0
   33.3603   40.7500   27.3526 H   0  0  0  0  0  0  0  0  0  0  0  0
   31.7718   40.3451   26.7439 H   0  0  0  0  0  0  0  0  0  0  0  0
  1  2  1  0
  2  8  2  0
  2  3  1  0
  3  4  2  0
  3 38  1  0
  4  5  1  0
  4  6  1  0
  6  7  2  0
  6  9  1  0
  7  8  1  0
  7 39  1  0
  8 40  1  0
  9 10  1  0
 10 11  2  0
 10 12  1  0
 11 26  1  0
 11 41  1  0
 12 13  2  0
 12 14  1  0
 14 15  1  0
 14 25  1  0
 15 20  1  0
 15 16  1  0
 15 42  1  0
 16 17  1  0
 16 43  1  0
 16 44  1  0
 17 18  1  0
 17 45  1  0
 17 46  1  0
 18 19  1  0
 18 21  1  0
 19 20  1  0
 19 47  1  0
 19 48  1  0
 20 49  1  0
 20 50  1  0
 21 22  2  0
 21 23  2  0
 21 24  1  0
 24 51  1  0
 24 52  1  0
 24 53  1  0
 25 26  2  0
 25 27  1  0
 26 30  1  0
 27 28  2  0
 28 29  1  0
 28 31  1  0
 29 30  2  0
 30 54  1  0
 31 32  1  0
 31 55  1  0
 32 37  1  0
 32 33  1  0
 32 56  1  0
 33 34  1  0
 33 57  1  0
 33 58  1  0
 34 35  1  0
 34 59  1  0
 34 60  1  0
 35 36  1  0
 36 37  1  0
 36 61  1  0
 36 62  1  0
 37 63  1  0
 37 64  1  0
M  END
>  <s_m_entry_id>  (1) 
267

>  <i_f3d_flags>  (1) 
0

>  <r_lp_tautomer_probability>  (1) 
1

>  <r_epik_Ionization_Penalty>  (1) 
  0.0000

>  <r_epik_State_Penalty>  (1) 
  0.0000

>  <i_epik_Tot_Q>  (1) 
0

>  <s_m_job_name>  (1) 
glide-dock_SP_p38_core_cons_top_1

>  <r_i_docking_score>  (1) 
-6.69996269538494

>  <r_i_glide_gscore>  (1) 
-6.69996269538494

>  <r_i_glide_emodel>  (1) 
-45.1317879900099

>  <index_string>  (1) 
25:0:0

$$$$
