32:0:0
     RDKit          3D

 43 47  0  0  1  0  0  0  0  0999 V2000
   -4.5652   -3.3180   15.0153 C   0  0  0  0  0  0  0  0  0  0  0  0
   -3.8980   -2.2969   14.2879 O   0  0  0  0  0  0  0  0  0  0  0  0
   -2.5560   -2.1040   14.5371 C   0  0  0  0  0  0  0  0  0  0  0  0
   -1.7900   -2.8748   15.4454 C   0  0  0  0  0  0  0  0  0  0  0  0
   -0.4278   -2.5854   15.6580 C   0  0  0  0  0  0  0  0  0  0  0  0
    0.2078   -1.5301   14.9714 C   0  0  0  0  0  0  0  0  0  0  0  0
    1.5632   -1.3005   15.2752 N   0  0  0  0  0  0  0  0  0  0  0  0
    2.5216   -0.4284   14.7293 C   0  0  0  0  0  0  0  0  0  0  0  0
    2.2056    0.3749   13.7487 N   0  0  0  0  0  0  0  0  0  0  0  0
    3.1371    1.2591   13.2416 C   0  0  0  0  0  0  0  0  0  0  0  0
    4.4401    1.2810   13.6839 C   0  0  0  0  0  0  0  0  0  0  0  0
    4.7647    0.4704   14.7216 N   0  0  0  0  0  0  0  0  0  0  0  0
    5.9084    0.3720   15.4869 C   0  0  0  0  0  0  0  0  0  0  0  0
    5.5956   -0.4930   16.5015 C   0  0  0  0  0  0  0  0  0  0  0  0
    4.3503   -1.0620   16.3282 N   0  0  0  0  0  0  0  0  0  0  0  0
    3.8248   -0.4195   15.2925 C   0  0  0  0  0  0  0  0  0  0  0  0
    2.6578    2.2431   12.2351 C   0  0  0  0  0  0  0  0  0  0  0  0
    3.5400    2.8010   11.2728 C   0  0  0  0  0  0  0  0  0  0  0  0
    3.0966    3.7241   10.3035 C   0  0  0  0  0  0  0  0  0  0  0  0
    1.7491    4.1412   10.2725 C   0  0  0  0  0  0  0  0  0  0  0  0
    0.9338    5.0147    9.4815 C   0  0  0  0  0  0  0  0  0  0  0  0
   -0.3077    5.0350    9.9057 N   0  0  0  0  0  0  0  0  0  0  0  0
   -0.3397    4.1960   10.9719 N   0  0  0  0  0  0  0  0  0  0  0  0
    0.8778    3.6034   11.2549 C   0  0  0  0  0  0  0  0  0  0  0  0
    1.3113    2.6772   12.2207 C   0  0  0  0  0  0  0  0  0  0  0  0
   -0.5589   -0.7748   14.0507 C   0  0  0  0  0  0  0  0  0  0  0  0
   -1.9199   -1.0615   13.8390 C   0  0  0  0  0  0  0  0  0  0  0  0
   -5.6151   -3.3415   14.7239 H   0  0  0  0  0  0  0  0  0  0  0  0
   -4.5256   -3.1335   16.0900 H   0  0  0  0  0  0  0  0  0  0  0  0
   -4.1424   -4.3007   14.8023 H   0  0  0  0  0  0  0  0  0  0  0  0
   -2.2241   -3.6866   16.0097 H   0  0  0  0  0  0  0  0  0  0  0  0
    0.1274   -3.1813   16.3699 H   0  0  0  0  0  0  0  0  0  0  0  0
    1.9403   -1.8827   16.0128 H   0  0  0  0  0  0  0  0  0  0  0  0
    5.1977    1.9781   13.3445 H   0  0  0  0  0  0  0  0  0  0  0  0
    6.7681    0.9913   15.2812 H   0  0  0  0  0  0  0  0  0  0  0  0
    6.1187   -0.7302   17.4027 H   0  0  0  0  0  0  0  0  0  0  0  0
    4.5757    2.4970   11.2498 H   0  0  0  0  0  0  0  0  0  0  0  0
    3.7915    4.1125    9.5743 H   0  0  0  0  0  0  0  0  0  0  0  0
    1.2179    5.6184    8.6321 H   0  0  0  0  0  0  0  0  0  0  0  0
   -1.1998    4.0540   11.4804 H   0  0  0  0  0  0  0  0  0  0  0  0
    0.6101    2.2988   12.9489 H   0  0  0  0  0  0  0  0  0  0  0  0
   -0.1476    0.0460   13.4909 H   0  0  0  0  0  0  0  0  0  0  0  0
   -2.4806   -0.4692   13.1316 H   0  0  0  0  0  0  0  0  0  0  0  0
  1  2  1  0
  1 28  1  0
  1 29  1  0
  1 30  1  0
  2  3  1  0
  3  4  2  0
  3 27  1  0
  4  5  1  0
  4 31  1  0
  5  6  2  0
  5 32  1  0
  6  7  1  0
  6 26  1  0
  7  8  1  0
  7 33  1  0
  8  9  2  0
  8 16  1  0
  9 10  1  0
 10 11  2  0
 10 17  1  0
 11 12  1  0
 11 34  1  0
 12 13  1  0
 12 16  1  0
 13 14  2  0
 13 35  1  0
 14 15  1  0
 14 36  1  0
 15 16  2  0
 17 18  2  0
 17 25  1  0
 18 19  1  0
 18 37  1  0
 19 20  2  0
 19 38  1  0
 20 21  1  0
 20 24  1  0
 21 22  2  0
 21 39  1  0
 22 23  1  0
 23 24  1  0
 23 40  1  0
 24 25  2  0
 25 41  1  0
 26 27  2  0
 26 42  1  0
 27 43  1  0
M  END
>  <s_m_entry_id>  (1) 
1020

>  <IC50[nM]>  (1) 
7

>  <s_m_Source_Path>  (1) 
/projects/mai/users/kmzp800_harry/pmx_colab/docking_jobs/syk

>  <s_m_Source_File>  (1) 
tnks2_lig.sdf

>  <i_m_Source_File_Index>  (1) 
33

>  <s_m_job_name>  (1) 
glide-dock_SP_tnks2_core_const

>  <r_i_docking_score>  (1) 
-6.93784229649299

>  <r_i_glide_gscore>  (1) 
-6.93784229649299

>  <r_i_glide_emodel>  (1) 
-43.0495817368595

>  <index_string>  (1) 
32:0:0

$$$$
