0:0:0
     RDKit          3D

 56 61  0  0  1  0  0  0  0  0999 V2000
   -2.5300    0.7694   12.2595 C   0  0  0  0  0  0  0  0  0  0  0  0
   -2.7382   -0.2719   13.2030 O   0  0  0  0  0  0  0  0  0  0  0  0
   -1.6360   -0.8449   13.8148 C   0  0  0  0  0  0  0  0  0  0  0  0
   -0.3060   -0.4595   13.5132 C   0  0  0  0  0  0  0  0  0  0  0  0
    0.8040   -0.9823   14.2187 C   0  0  0  0  0  0  0  0  0  0  0  0
    2.1352   -0.5735   13.9875 N   0  0  0  0  0  0  0  0  0  0  0  0
    2.6164    0.7153   13.6842 C   0  0  0  0  0  0  0  0  0  0  0  0
    1.7805    1.5917   13.2195 N   0  0  0  0  0  0  0  0  0  0  0  0
    2.1646    2.8871   13.0020 C   0  0  0  0  0  0  0  0  0  0  0  0
    3.4368    3.3303   13.2622 C   0  0  0  0  0  0  0  0  0  0  0  0
    4.3206    2.4237   13.7561 N   0  0  0  0  0  0  0  0  0  0  0  0
    5.6304    2.5575   14.1685 C   0  0  0  0  0  0  0  0  0  0  0  0
    6.0287    1.3280   14.6174 C   0  0  0  0  0  0  0  0  0  0  0  0
    5.0008    0.4040   14.4929 N   0  0  0  0  0  0  0  0  0  0  0  0
    3.9701    1.0671   13.9698 C   0  0  0  0  0  0  0  0  0  0  0  0
    1.0853    3.7592   12.4983 C   0  0  0  0  0  0  0  0  0  0  0  0
    0.0643    3.2346   11.6682 C   0  0  0  0  0  0  0  0  0  0  0  0
   -0.9795    4.0377   11.1743 C   0  0  0  0  0  0  0  0  0  0  0  0
   -1.0440    5.4043   11.5101 C   0  0  0  0  0  0  0  0  0  0  0  0
   -1.9037    6.5116   11.2280 C   0  0  0  0  0  0  0  0  0  0  0  0
   -1.4861    7.6038   11.8179 N   0  0  0  0  0  0  0  0  0  0  0  0
   -0.3677    7.2473   12.5038 N   0  0  0  0  0  0  0  0  0  0  0  0
   -0.0242    5.9203   12.3531 C   0  0  0  0  0  0  0  0  0  0  0  0
    1.0292    5.1274   12.8395 C   0  0  0  0  0  0  0  0  0  0  0  0
    0.5639   -1.9634   15.1977 C   0  0  0  0  0  0  0  0  0  0  0  0
   -0.7465   -2.3952   15.4761 C   0  0  0  0  0  0  0  0  0  0  0  0
   -1.8585   -1.8495   14.7898 C   0  0  0  0  0  0  0  0  0  0  0  0
   -3.1797   -2.2693   15.0605 N   0  0  0  0  0  0  0  0  0  0  0  0
   -3.9056   -2.8953   13.9580 C   0  0  0  0  0  0  0  0  0  0  0  0
   -3.7818   -4.4267   14.0287 C   0  0  0  0  0  0  0  0  0  0  0  0
   -4.2406   -4.8851   15.2964 O   0  0  0  0  0  0  0  0  0  0  0  0
   -3.4490   -4.3651   16.3612 C   0  0  0  0  0  0  0  0  0  0  0  0
   -3.5248   -2.8226   16.3696 C   0  0  0  0  0  0  0  0  0  0  0  0
   -3.4879    1.0941   11.8539 H   0  0  0  0  0  0  0  0  0  0  0  0
   -2.0610    1.6327   12.7329 H   0  0  0  0  0  0  0  0  0  0  0  0
   -1.9221    0.4363   11.4172 H   0  0  0  0  0  0  0  0  0  0  0  0
   -0.1352    0.2490   12.7250 H   0  0  0  0  0  0  0  0  0  0  0  0
    2.8402   -1.1456   14.4309 H   0  0  0  0  0  0  0  0  0  0  0  0
    3.7742    4.3518   13.1270 H   0  0  0  0  0  0  0  0  0  0  0  0
    6.1391    3.5071   14.1023 H   0  0  0  0  0  0  0  0  0  0  0  0
    6.9884    1.0323   15.0167 H   0  0  0  0  0  0  0  0  0  0  0  0
    0.0721    2.1875   11.4118 H   0  0  0  0  0  0  0  0  0  0  0  0
   -1.7383    3.6060   10.5387 H   0  0  0  0  0  0  0  0  0  0  0  0
   -2.7933    6.5393   10.6176 H   0  0  0  0  0  0  0  0  0  0  0  0
    0.1622    7.9269   13.0433 H   0  0  0  0  0  0  0  0  0  0  0  0
    1.7748    5.5712   13.4841 H   0  0  0  0  0  0  0  0  0  0  0  0
    1.3856   -2.3939   15.7530 H   0  0  0  0  0  0  0  0  0  0  0  0
   -0.8714   -3.1493   16.2384 H   0  0  0  0  0  0  0  0  0  0  0  0
   -3.5433   -2.5556   12.9871 H   0  0  0  0  0  0  0  0  0  0  0  0
   -4.9550   -2.6046   14.0217 H   0  0  0  0  0  0  0  0  0  0  0  0
   -4.3848   -4.8861   13.2462 H   0  0  0  0  0  0  0  0  0  0  0  0
   -2.7497   -4.7446   13.8678 H   0  0  0  0  0  0  0  0  0  0  0  0
   -3.8198   -4.7621   17.3072 H   0  0  0  0  0  0  0  0  0  0  0  0
   -2.4241   -4.7185   16.2516 H   0  0  0  0  0  0  0  0  0  0  0  0
   -4.5424   -2.5105   16.6126 H   0  0  0  0  0  0  0  0  0  0  0  0
   -2.8904   -2.3983   17.1456 H   0  0  0  0  0  0  0  0  0  0  0  0
  1  2  1  0
  1 34  1  0
  1 35  1  0
  1 36  1  0
  2  3  1  0
  3  4  2  0
  3 27  1  0
  4  5  1  0
  4 37  1  0
  5  6  1  0
  5 25  2  0
  6  7  1  0
  6 38  1  0
  7  8  2  0
  7 15  1  0
  8  9  1  0
  9 10  2  0
  9 16  1  0
 10 11  1  0
 10 39  1  0
 11 12  1  0
 11 15  1  0
 12 13  2  0
 12 40  1  0
 13 14  1  0
 13 41  1  0
 14 15  2  0
 16 17  2  0
 16 24  1  0
 17 18  1  0
 17 42  1  0
 18 19  2  0
 18 43  1  0
 19 20  1  0
 19 23  1  0
 20 21  2  0
 20 44  1  0
 21 22  1  0
 22 23  1  0
 22 45  1  0
 23 24  2  0
 24 46  1  0
 25 26  1  0
 25 47  1  0
 26 27  2  0
 26 48  1  0
 27 28  1  0
 28 29  1  0
 28 33  1  0
 29 30  1  0
 29 49  1  0
 29 50  1  0
 30 31  1  0
 30 51  1  0
 30 52  1  0
 31 32  1  0
 32 33  1  0
 32 53  1  0
 32 54  1  0
 33 55  1  0
 33 56  1  0
M  END
>  <s_m_entry_id>  (1) 
680

>  <IC50[nM]>  (1) 
0.44

>  <s_m_Source_Path>  (1) 
/projects/mai/users/kmzp800_harry/pmx_colab/docking_jobs/syk

>  <s_m_Source_File>  (1) 
tnks2_lig.sdf

>  <i_m_Source_File_Index>  (1) 
1

>  <s_m_job_name>  (1) 
glide-dock_SP_tnks2_no_const

>  <r_i_docking_score>  (1) 
-6.33102615323706

>  <r_i_glide_gscore>  (1) 
-6.33102615323706

>  <r_i_glide_emodel>  (1) 
-67.195268277087

>  <index_string>  (1) 
0:0:0

$$$$
