4:0:0
     RDKit          3D

 37 39  0  0  1  0  0  0  0  0999 V2000
  -14.4475  -14.8119  -27.6994 C   0  0  0  0  0  0  0  0  0  0  0  0
  -15.0314  -15.6217  -26.7063 C   0  0  0  0  0  0  0  0  0  0  0  0
  -14.4779  -13.4108  -27.5862 C   0  0  0  0  0  0  0  0  0  0  0  0
  -15.7288  -15.0226  -25.6310 C   0  0  0  0  0  0  0  0  0  0  0  0
  -14.8484  -17.0104  -26.7688 N   0  0  0  0  0  0  0  0  0  0  0  0
  -15.1545  -12.8138  -26.5089 C   0  0  0  0  0  0  0  0  0  0  0  0
  -15.7944  -13.6128  -25.5416 C   0  0  0  0  0  0  0  0  0  0  0  0
  -16.3499  -15.9446  -24.6174 C   0  0  0  0  0  0  0  0  0  0  0  0
  -16.1133  -17.2454  -24.8129 N   0  0  0  0  0  0  0  0  0  0  0  0
  -17.0160  -15.5727  -23.6622 O   0  0  0  0  0  0  0  0  0  0  0  0
  -15.3601  -17.7854  -25.8550 C   0  0  0  0  0  0  0  0  0  0  0  0
  -15.1931  -19.2610  -25.9396 C   0  0  0  0  0  0  0  0  0  0  0  0
  -15.4254  -20.0996  -24.8305 C   0  0  0  0  0  0  0  0  0  0  0  0
  -15.2026  -21.4874  -24.9371 C   0  0  0  0  0  0  0  0  0  0  0  0
  -14.7375  -22.0526  -26.1481 C   0  0  0  0  0  0  0  0  0  0  0  0
  -14.5442  -21.2076  -27.2520 C   0  0  0  0  0  0  0  0  0  0  0  0
  -14.7806  -19.8364  -27.1537 C   0  0  0  0  0  0  0  0  0  0  0  0
  -14.4029  -23.5378  -26.2457 C   0  0  0  0  0  0  0  0  0  0  0  0
  -13.9994  -23.9591  -27.5377 O   0  0  0  0  0  0  0  0  0  0  0  0
  -15.6480  -24.3728  -25.9386 C   0  0  0  0  0  0  0  0  0  0  0  0
  -13.2073  -23.8374  -25.3338 C   0  0  0  0  0  0  0  0  0  0  0  0
  -16.4479  -13.0058  -24.5312 F   0  0  0  0  0  0  0  0  0  0  0  0
  -13.9189  -15.2679  -28.5243 H   0  0  0  0  0  0  0  0  0  0  0  0
  -13.9943  -12.7916  -28.3283 H   0  0  0  0  0  0  0  0  0  0  0  0
  -15.1845  -11.7380  -26.4303 H   0  0  0  0  0  0  0  0  0  0  0  0
  -16.5588  -17.8835  -24.1651 H   0  0  0  0  0  0  0  0  0  0  0  0
  -15.7481  -19.6966  -23.8820 H   0  0  0  0  0  0  0  0  0  0  0  0
  -15.3584  -22.1125  -24.0701 H   0  0  0  0  0  0  0  0  0  0  0  0
  -14.1751  -21.5727  -28.1916 H   0  0  0  0  0  0  0  0  0  0  0  0
  -14.5925  -19.2255  -28.0248 H   0  0  0  0  0  0  0  0  0  0  0  0
  -13.7938  -24.8805  -27.5019 H   0  0  0  0  0  0  0  0  0  0  0  0
  -15.9723  -24.2541  -24.9048 H   0  0  0  0  0  0  0  0  0  0  0  0
  -15.4797  -25.4351  -26.1082 H   0  0  0  0  0  0  0  0  0  0  0  0
  -16.4805  -24.0794  -26.5800 H   0  0  0  0  0  0  0  0  0  0  0  0
  -13.4530  -23.7033  -24.2800 H   0  0  0  0  0  0  0  0  0  0  0  0
  -12.8395  -24.8515  -25.4688 H   0  0  0  0  0  0  0  0  0  0  0  0
  -12.3777  -23.1694  -25.5608 H   0  0  0  0  0  0  0  0  0  0  0  0
  1  2  2  0
  1  3  1  0
  1 23  1  0
  2  4  1  0
  2  5  1  0
  3  6  2  0
  3 24  1  0
  4  7  2  0
  4  8  1  0
  5 11  2  0
  6  7  1  0
  6 25  1  0
  7 22  1  0
  8  9  1  0
  8 10  2  0
  9 11  1  0
  9 26  1  0
 11 12  1  0
 12 13  2  0
 12 17  1  0
 13 14  1  0
 13 27  1  0
 14 15  2  0
 14 28  1  0
 15 16  1  0
 15 18  1  0
 16 17  2  0
 16 29  1  0
 17 30  1  0
 18 19  1  0
 18 20  1  0
 18 21  1  0
 19 31  1  0
 20 32  1  0
 20 33  1  0
 20 34  1  0
 21 35  1  0
 21 36  1  0
 21 37  1  0
M  END
>  <s_m_entry_id>  (1) 
446

>  <Name>  (1) 
5b

>  <IC50[nM]>  (1) 
21

>  <s_m_Source_Path>  (1) 
/projects/mai/users/kmzp800_harry/pmx_colab/docking_jobs/tnks2

>  <s_m_Source_File>  (1) 
tnks2_lig.sdf

>  <i_m_Source_File_Index>  (1) 
5

>  <s_m_job_name>  (1) 
glide-dock_SP_tnks2_core_const

>  <r_i_docking_score>  (1) 
-10.3072422773029

>  <r_i_glide_gscore>  (1) 
-10.3072422773029

>  <r_i_glide_emodel>  (1) 
-55.3606082131015

>  <index_string>  (1) 
4:0:0

$$$$
