43:0:0
     RDKit          3D

 65 70  0  0  1  0  0  0  0  0999 V2000
   -0.0224    6.4440   11.4199 C   0  0  0  0  0  0  0  0  0  0  0  0
   -0.8976    5.5424   10.7537 O   0  0  0  0  0  0  0  0  0  0  0  0
   -1.1126    4.3020   11.3201 C   0  0  0  0  0  0  0  0  0  0  0  0
   -0.4468    3.8529   12.4854 C   0  0  0  0  0  0  0  0  0  0  0  0
   -0.7079    2.5769   13.0112 C   0  0  0  0  0  0  0  0  0  0  0  0
   -1.6173    1.7024   12.3729 C   0  0  0  0  0  0  0  0  0  0  0  0
   -1.8883    0.4047   12.8500 N   0  0  0  0  0  0  0  0  0  0  0  0
   -1.0818   -0.4173   13.6564 C   0  0  0  0  0  0  0  0  0  0  0  0
    0.1886   -0.1630   13.7142 N   0  0  0  0  0  0  0  0  0  0  0  0
    1.0282   -0.8877   14.5243 C   0  0  0  0  0  0  0  0  0  0  0  0
    0.5624   -1.9445   15.2740 C   0  0  0  0  0  0  0  0  0  0  0  0
   -0.7642   -2.2416   15.1940 N   0  0  0  0  0  0  0  0  0  0  0  0
   -1.5278   -3.2105   15.8157 C   0  0  0  0  0  0  0  0  0  0  0  0
   -2.8136   -3.0325   15.3851 C   0  0  0  0  0  0  0  0  0  0  0  0
   -2.8982   -1.9690   14.4929 N   0  0  0  0  0  0  0  0  0  0  0  0
   -1.6560   -1.4961   14.3829 C   0  0  0  0  0  0  0  0  0  0  0  0
    2.4335   -0.3956   14.5444 C   0  0  0  0  0  0  0  0  0  0  0  0
    3.4134   -0.9244   15.4172 C   0  0  0  0  0  0  0  0  0  0  0  0
    4.7226   -0.3960   15.4497 C   0  0  0  0  0  0  0  0  0  0  0  0
    5.0839    0.6819   14.6174 C   0  0  0  0  0  0  0  0  0  0  0  0
    4.1215    1.2613   13.7673 C   0  0  0  0  0  0  0  0  0  0  0  0
    2.8233    0.7020   13.7297 C   0  0  0  0  0  0  0  0  0  0  0  0
    4.4321    2.5285   13.0147 C   0  0  0  0  0  0  0  0  0  0  0  0
    5.3209    3.2810   13.4099 O   0  0  0  0  0  0  0  0  0  0  0  0
    3.7096    2.7076   11.8918 N   0  0  0  0  0  0  0  0  0  0  0  0
    3.5557    3.8566   11.0688 C   0  0  0  0  0  0  0  0  0  0  0  0
    2.6623    3.7384    9.9827 C   0  0  0  0  0  0  0  0  0  0  0  0
    2.4065    4.8327    9.1358 C   0  0  0  0  0  0  0  0  0  0  0  0
    3.0555    6.0630    9.3578 C   0  0  0  0  0  0  0  0  0  0  0  0
    3.9467    6.1880   10.4406 C   0  0  0  0  0  0  0  0  0  0  0  0
    4.1981    5.0979   11.2963 C   0  0  0  0  0  0  0  0  0  0  0  0
    2.8078    7.2011    8.4835 C   0  0  0  0  0  0  0  0  0  0  0  0
    3.7626    7.9952    7.9991 N   0  0  0  0  0  0  0  0  0  0  0  0
    3.1024    8.9412    7.2153 C   0  0  0  0  0  0  0  0  0  0  0  0
    1.7506    8.6932    7.2367 C   0  0  0  0  0  0  0  0  0  0  0  0
    1.5986    7.5832    8.0491 N   0  0  0  0  0  0  0  0  0  0  0  0
   -2.3063    2.1638   11.2329 C   0  0  0  0  0  0  0  0  0  0  0  0
   -2.0652    3.4572   10.7038 C   0  0  0  0  0  0  0  0  0  0  0  0
   -2.7177    3.9447    9.5916 O   0  0  0  0  0  0  0  0  0  0  0  0
   -4.0074    3.4236    9.3001 C   0  0  0  0  0  0  0  0  0  0  0  0
    0.0394    7.3729   10.8538 H   0  0  0  0  0  0  0  0  0  0  0  0
   -0.3872    6.6910   12.4176 H   0  0  0  0  0  0  0  0  0  0  0  0
    0.9884    6.0427   11.4986 H   0  0  0  0  0  0  0  0  0  0  0  0
    0.2701    4.4714   13.0033 H   0  0  0  0  0  0  0  0  0  0  0  0
   -0.1938    2.2912   13.9158 H   0  0  0  0  0  0  0  0  0  0  0  0
   -2.7187   -0.0502   12.4978 H   0  0  0  0  0  0  0  0  0  0  0  0
    1.1657   -2.5523   15.9410 H   0  0  0  0  0  0  0  0  0  0  0  0
   -1.0798   -3.9082   16.5107 H   0  0  0  0  0  0  0  0  0  0  0  0
   -3.6968   -3.5928   15.6572 H   0  0  0  0  0  0  0  0  0  0  0  0
    3.1752   -1.7427   16.0785 H   0  0  0  0  0  0  0  0  0  0  0  0
    5.4559   -0.8185   16.1223 H   0  0  0  0  0  0  0  0  0  0  0  0
    6.0830    1.0908   14.6763 H   0  0  0  0  0  0  0  0  0  0  0  0
    2.0904    1.1736   13.0937 H   0  0  0  0  0  0  0  0  0  0  0  0
    3.1014    1.9384   11.6598 H   0  0  0  0  0  0  0  0  0  0  0  0
    2.1546    2.8044    9.7962 H   0  0  0  0  0  0  0  0  0  0  0  0
    1.7177    4.7201    8.3113 H   0  0  0  0  0  0  0  0  0  0  0  0
    4.4294    7.1383   10.6176 H   0  0  0  0  0  0  0  0  0  0  0  0
    4.8757    5.2512   12.1218 H   0  0  0  0  0  0  0  0  0  0  0  0
    3.6485    9.7198    6.7027 H   0  0  0  0  0  0  0  0  0  0  0  0
    0.9192    9.1956    6.7658 H   0  0  0  0  0  0  0  0  0  0  0  0
    0.7250    7.1408    8.2963 H   0  0  0  0  0  0  0  0  0  0  0  0
   -3.0071    1.4990   10.7514 H   0  0  0  0  0  0  0  0  0  0  0  0
   -4.4735    4.0420    8.5327 H   0  0  0  0  0  0  0  0  0  0  0  0
   -3.9700    2.4048    8.9174 H   0  0  0  0  0  0  0  0  0  0  0  0
   -4.6518    3.4476   10.1795 H   0  0  0  0  0  0  0  0  0  0  0  0
  1  2  1  0
  1 41  1  0
  1 42  1  0
  1 43  1  0
  2  3  1  0
  3  4  2  0
  3 38  1  0
  4  5  1  0
  4 44  1  0
  5  6  2  0
  5 45  1  0
  6  7  1  0
  6 37  1  0
  7  8  1  0
  7 46  1  0
  8  9  2  0
  8 16  1  0
  9 10  1  0
 10 11  2  0
 10 17  1  0
 11 12  1  0
 11 47  1  0
 12 13  1  0
 12 16  1  0
 13 14  2  0
 13 48  1  0
 14 15  1  0
 14 49  1  0
 15 16  2  0
 17 18  2  0
 17 22  1  0
 18 19  1  0
 18 50  1  0
 19 20  2  0
 19 51  1  0
 20 21  1  0
 20 52  1  0
 21 22  2  0
 21 23  1  0
 22 53  1  0
 23 24  2  0
 23 25  1  0
 25 26  1  0
 25 54  1  0
 26 27  2  0
 26 31  1  0
 27 28  1  0
 27 55  1  0
 28 29  2  0
 28 56  1  0
 29 30  1  0
 29 32  1  0
 30 31  2  0
 30 57  1  0
 31 58  1  0
 32 33  2  0
 32 36  1  0
 33 34  1  0
 34 35  2  0
 34 59  1  0
 35 36  1  0
 35 60  1  0
 36 61  1  0
 37 38  2  0
 37 62  1  0
 38 39  1  0
 39 40  1  0
 40 63  1  0
 40 64  1  0
 40 65  1  0
M  END
>  <s_m_entry_id>  (1) 
723

>  <IC50[nM]>  (1) 
16.5

>  <s_m_Source_Path>  (1) 
/projects/mai/users/kmzp800_harry/pmx_colab/docking_jobs/syk

>  <s_m_Source_File>  (1) 
tnks2_lig.sdf

>  <i_m_Source_File_Index>  (1) 
44

>  <s_m_job_name>  (1) 
glide-dock_SP_tnks2_no_const

>  <r_i_docking_score>  (1) 
-6.58732780495165

>  <r_i_glide_gscore>  (1) 
-6.58732780495165

>  <r_i_glide_emodel>  (1) 
-77.0505017478746

>  <index_string>  (1) 
43:0:0

$$$$
