30:0:0
     RDKit          3D

 45 48  0  0  1  0  0  0  0  0999 V2000
   35.4130   36.4970   19.8250 C   0  0  0  0  0  0  0  0  0  0  0  0
   35.2150   37.8560   20.0850 C   0  0  0  0  0  0  0  0  0  0  0  0
   34.6390   38.2590   21.2830 C   0  0  0  0  0  0  0  0  0  0  0  0
   34.4260   39.6050   21.5640 C   0  0  0  0  0  0  0  0  0  0  0  0
   33.8620   39.9670   22.7460 N   0  0  0  0  0  0  0  0  0  0  0  0
   33.5000   39.0320   23.6660 C   0  0  0  0  0  0  0  0  0  0  0  0
   32.9080   39.4510   24.9000 N   0  0  0  0  0  0  0  0  0  0  0  0
   33.7030   37.7110   23.4060 N   0  0  0  0  0  0  0  0  0  0  0  0
   34.2640   37.2980   22.2360 C   0  0  0  0  0  0  0  0  0  0  0  0
   34.4660   35.9680   21.9830 N   0  0  0  0  0  0  0  0  0  0  0  0
   34.0720   34.9770   22.9820 C   0  0  0  0  0  0  0  0  0  0  0  0
   35.0300   35.5530   20.8040 C   0  0  0  0  0  0  0  0  0  0  0  0
   35.1960   34.3210   20.5840 O   0  0  0  0  0  0  0  0  0  0  0  0
   37.3510   35.3710   16.1660 C   0  0  0  0  0  0  0  0  0  0  0  0
   38.0980   35.7990   17.2640 C   0  0  0  0  0  0  0  0  0  0  0  0
   37.4530   36.1540   18.4510 C   0  0  0  0  0  0  0  0  0  0  0  0
   36.0550   36.0870   18.5550 C   0  0  0  0  0  0  0  0  0  0  0  0
   35.3050   35.6500   17.4390 C   0  0  0  0  0  0  0  0  0  0  0  0
   33.5560   35.4720   17.4910 Cl  0  0  0  0  0  0  0  0  0  0  0  0
   35.9610   35.2960   16.2550 C   0  0  0  0  0  0  0  0  0  0  0  0
   32.4790   38.5460   25.9630 C   0  0  0  0  0  0  0  0  0  0  0  0
   31.1320   37.9020   25.6230 C   0  0  0  0  0  0  0  0  0  0  0  0
   30.6280   37.1280   26.8400 C   0  0  0  0  0  0  0  0  0  0  0  0
   30.4850   37.9990   27.9360 O   0  0  0  0  0  0  0  0  0  0  0  0
   31.7850   38.3470   28.3460 C   0  0  0  0  0  0  0  0  0  0  0  0
   32.4290   39.2680   27.3110 C   0  0  0  0  0  0  0  0  0  0  0  0
   35.5157   38.6073   19.3399 H   0  0  0  0  0  0  0  0  0  0  0  0
   34.7133   40.3737   20.8315 H   0  0  0  0  0  0  0  0  0  0  0  0
   32.7753   40.4615   25.0487 H   0  0  0  0  0  0  0  0  0  0  0  0
   34.2351   35.3872   23.9895 H   0  0  0  0  0  0  0  0  0  0  0  0
   33.0076   34.7307   22.8542 H   0  0  0  0  0  0  0  0  0  0  0  0
   34.6768   34.0671   22.8542 H   0  0  0  0  0  0  0  0  0  0  0  0
   37.8581   35.0928   15.2304 H   0  0  0  0  0  0  0  0  0  0  0  0
   39.1943   35.8568   17.1949 H   0  0  0  0  0  0  0  0  0  0  0  0
   38.0472   36.4897   19.3137 H   0  0  0  0  0  0  0  0  0  0  0  0
   35.3761   34.9559   15.3877 H   0  0  0  0  0  0  0  0  0  0  0  0
   33.2225   37.7396   26.0457 H   0  0  0  0  0  0  0  0  0  0  0  0
   30.4060   38.6845   25.3573 H   0  0  0  0  0  0  0  0  0  0  0  0
   31.2528   37.2165   24.7712 H   0  0  0  0  0  0  0  0  0  0  0  0
   29.6540   36.6737   26.6056 H   0  0  0  0  0  0  0  0  0  0  0  0
   31.3535   36.3414   27.0948 H   0  0  0  0  0  0  0  0  0  0  0  0
   31.7351   38.8658   29.3147 H   0  0  0  0  0  0  0  0  0  0  0  0
   32.3901   37.4336   28.4435 H   0  0  0  0  0  0  0  0  0  0  0  0
   33.4501   39.5241   27.6301 H   0  0  0  0  0  0  0  0  0  0  0  0
   31.8378   40.1908   27.2162 H   0  0  0  0  0  0  0  0  0  0  0  0
  1  2  2  0
  1 12  1  0
  1 17  1  0
  2  3  1  0
  2 27  1  0
  3  4  2  0
  3  9  1  0
  4  5  1  0
  4 28  1  0
  5  6  2  0
  6  7  1  0
  6  8  1  0
  7 21  1  0
  7 29  1  0
  8  9  2  0
  9 10  1  0
 10 11  1  0
 10 12  1  0
 11 30  1  0
 11 31  1  0
 11 32  1  0
 12 13  2  0
 14 20  2  0
 14 15  1  0
 14 33  1  0
 15 16  2  0
 15 34  1  0
 16 17  1  0
 16 35  1  0
 17 18  2  0
 18 19  1  0
 18 20  1  0
 20 36  1  0
 21 26  1  0
 21 22  1  0
 21 37  1  0
 22 23  1  0
 22 38  1  0
 22 39  1  0
 23 24  1  0
 23 40  1  0
 23 41  1  0
 24 25  1  0
 25 26  1  0
 25 42  1  0
 25 43  1  0
 26 44  1  0
 26 45  1  0
M  END
>  <s_m_entry_id>  (1) 
1385

>  <MODEL>  (1) 
1

>  <REMARK>  (1) 
 VINA RESULT:    -8.739      0.000      0.000
 INTER + INTRA:         -10.367
 INTER:                  -9.761
 INTRA:                  -0.606
 UNBOUND:                -0.606
  Name = /scratch/kmzp800/tmp9piqubn6/tmp3ac_9srt.pdb
  3 active torsions:
  status: ('A' for Active; 'I' for Inactive)
    1  A    between atoms: C4_4  and  C5_5
    2  A    between atoms: N2_11  and  C10_12
    3  A    between atoms: N4_20  and  C16_21
                            x       y       z     vdW  Elec       q    Type
                         _______ _______ _______ _____ _____    ______ ____

>  <TORSDO>  (1) 
F 2

>  <grid_id>  (1) 
p38-prepared

>  <grid_path>  (1) 
/projects/mai/users/kmzp800_harry/pmx_colab/docking_jobs/p38/vina_docking/input_files/p38_vina.pdbqt

>  <grid_filename>  (1) 
p38_vina.pdbqt

>  <docking_score>  (1) 
-8.739

>  <compound_name>  (1) 
lig_p38a_2c

>  <index_string>  (1) 
30:0:0

>  <s_m_Source_Path>  (1) 
/projects/mai/users/kmzp800_harry/pmx_colab/docking_jobs/p38

>  <s_m_Source_File>  (1) 
p38_confs_vina_naive.sdf

>  <i_m_Source_File_Index>  (1) 
32

$$$$
