20:0:0
     RDKit          3D

 45 47  0  0  1  0  0  0  0  0999 V2000
   41.5997   17.4863   11.9326 O   0  0  0  0  0  0  0  0  0  0  0  0
   40.7976   17.4155   12.8940 C   0  0  0  0  0  0  0  0  0  0  0  0
   39.6381   17.8863   12.8903 O   0  0  0  0  0  0  0  0  0  0  0  0
   41.2553   16.7284   14.1834 C   0  0  0  0  0  0  0  0  0  0  0  0
   42.4323   15.9584   13.9672 O   0  0  0  0  0  0  0  0  0  0  0  0
   42.6229   14.9843   14.8847 C   0  0  0  0  0  0  0  0  0  0  0  0
   42.0612   13.6850   14.7940 C   0  0  0  0  0  0  0  0  0  0  0  0
   40.9838   13.2559   13.2940 Br  0  0  0  0  0  0  0  0  0  0  0  0
   42.3830   12.8223   15.8165 C   0  0  0  0  0  0  0  0  0  0  0  0
   43.3838   13.6618   16.9779 S   0  0  0  0  0  0  0  0  0  0  0  0
   43.3696   15.1288   16.0224 C   0  0  0  0  0  0  0  0  0  0  0  0
   44.1106   16.2863   16.5280 C   0  0  0  0  0  0  0  0  0  0  0  0
   44.5837   17.0863   15.6940 O   0  0  0  0  0  0  0  0  0  0  0  0
   44.2237   16.4653   17.7592 O   0  0  0  0  0  0  0  0  0  0  0  0
   42.0344   11.4171   16.0597 C   0  0  0  0  0  0  0  0  0  0  0  0
   42.9225   10.5510   16.7383 C   0  0  0  0  0  0  0  0  0  0  0  0
   42.5838    9.2019   16.9614 C   0  0  0  0  0  0  0  0  0  0  0  0
   41.3638    8.6864   16.4857 C   0  0  0  0  0  0  0  0  0  0  0  0
   40.4668    9.5287   15.7930 C   0  0  0  0  0  0  0  0  0  0  0  0
   40.8055   10.8848   15.6140 C   0  0  0  0  0  0  0  0  0  0  0  0
   39.2431    9.0863   15.2645 N   0  0  0  0  0  0  0  0  0  0  0  0
   39.0184    7.6856   14.9246 C   0  0  0  0  0  0  0  0  0  0  0  0
   37.5423    7.4767   14.5348 C   0  0  0  0  0  0  0  0  0  0  0  0
   37.2604    6.0179   14.1400 C   0  0  0  0  0  0  0  0  0  0  0  0
   38.1816    5.5631   12.9975 C   0  0  0  0  0  0  0  0  0  0  0  0
   39.6583    5.7649   13.3677 C   0  0  0  0  0  0  0  0  0  0  0  0
   39.9406    7.2191   13.7767 C   0  0  0  0  0  0  0  0  0  0  0  0
   41.4524   17.4863   14.9423 H   0  0  0  0  0  0  0  0  0  0  0  0
   40.4357   16.1075   14.5513 H   0  0  0  0  0  0  0  0  0  0  0  0
   43.8770   10.9121   17.0921 H   0  0  0  0  0  0  0  0  0  0  0  0
   43.2702    8.5545   17.4866 H   0  0  0  0  0  0  0  0  0  0  0  0
   41.1359    7.6450   16.6563 H   0  0  0  0  0  0  0  0  0  0  0  0
   40.1031   11.5278   15.1137 H   0  0  0  0  0  0  0  0  0  0  0  0
   38.7200    9.7672   14.7235 H   0  0  0  0  0  0  0  0  0  0  0  0
   39.2136    7.0770   15.8080 H   0  0  0  0  0  0  0  0  0  0  0  0
   36.8940    7.7606   15.3646 H   0  0  0  0  0  0  0  0  0  0  0  0
   37.2827    8.1320   13.7017 H   0  0  0  0  0  0  0  0  0  0  0  0
   37.4058    5.3707   15.0060 H   0  0  0  0  0  0  0  0  0  0  0  0
   36.2172    5.9074   13.8431 H   0  0  0  0  0  0  0  0  0  0  0  0
   37.9975    4.5141   12.7633 H   0  0  0  0  0  0  0  0  0  0  0  0
   37.9509    6.1273   12.0940 H   0  0  0  0  0  0  0  0  0  0  0  0
   39.9269    5.0982   14.1884 H   0  0  0  0  0  0  0  0  0  0  0  0
   40.2946    5.4864   12.5273 H   0  0  0  0  0  0  0  0  0  0  0  0
   39.8158    7.8709   12.9111 H   0  0  0  0  0  0  0  0  0  0  0  0
   40.9838    7.2958   14.0782 H   0  0  0  0  0  0  0  0  0  0  0  0
  1  2  2  0
  2  3  1  0
  2  4  1  0
  4  5  1  0
  4 28  1  0
  4 29  1  0
  5  6  1  0
  6 11  2  0
  6  7  1  0
  7  8  1  0
  7  9  2  0
  9 10  1  0
  9 15  1  0
 10 11  1  0
 11 12  1  0
 12 13  2  0
 12 14  1  0
 15 20  1  0
 15 16  2  0
 16 17  1  0
 16 30  1  0
 17 18  2  0
 17 31  1  0
 18 19  1  0
 18 32  1  0
 19 20  2  0
 19 21  1  0
 20 33  1  0
 21 22  1  0
 21 34  1  0
 22 27  1  0
 22 23  1  0
 22 35  1  0
 23 24  1  0
 23 36  1  0
 23 37  1  0
 24 25  1  0
 24 38  1  0
 24 39  1  0
 25 26  1  0
 25 40  1  0
 25 41  1  0
 26 27  1  0
 26 42  1  0
 26 43  1  0
 27 44  1  0
 27 45  1  0
M  CHG  2   3  -1  14  -1
M  END
>  <s_m_entry_id>  (1) 
473

>  <i_f3d_flags>  (1) 
0

>  <r_epik_Ionization_Penalty>  (1) 
  0.0027

>  <r_epik_State_Penalty>  (1) 
  0.0018

>  <i_epik_Tot_Q>  (1) 
-2

>  <s_m_job_name>  (1) 
glide-dock_SP_ptp1b_no_cons

>  <r_i_docking_score>  (1) 
-8.21359766843124

>  <r_i_glide_gscore>  (1) 
-8.21539766843124

>  <r_i_glide_emodel>  (1) 
-107.249526082851

>  <index_string>  (1) 
20:0:0

$$$$
