0:0:0
     RDKit          3D

 56 61  0  0  1  0  0  0  0  0999 V2000
   -2.1736    0.6985   12.3807 C   0  0  0  0  0  0  0  0  0  0  0  0
   -2.7322   -0.3204   13.1978 O   0  0  0  0  0  0  0  0  0  0  0  0
   -1.9265   -1.0626   14.0337 C   0  0  0  0  0  0  0  0  0  0  0  0
   -0.5403   -0.8173   14.1732 C   0  0  0  0  0  0  0  0  0  0  0  0
    0.2487   -1.5675   15.0711 C   0  0  0  0  0  0  0  0  0  0  0  0
    1.6154   -1.3436   15.2969 N   0  0  0  0  0  0  0  0  0  0  0  0
    2.5289   -0.4343   14.7276 C   0  0  0  0  0  0  0  0  0  0  0  0
    2.1933    0.3729   13.7570 N   0  0  0  0  0  0  0  0  0  0  0  0
    3.1209    1.2519   13.2342 C   0  0  0  0  0  0  0  0  0  0  0  0
    4.4220    1.2857   13.6831 C   0  0  0  0  0  0  0  0  0  0  0  0
    4.7565    0.4872   14.7267 N   0  0  0  0  0  0  0  0  0  0  0  0
    5.9049    0.3846   15.4812 C   0  0  0  0  0  0  0  0  0  0  0  0
    5.6130   -0.4971   16.4935 C   0  0  0  0  0  0  0  0  0  0  0  0
    4.3657   -1.0589   16.3285 N   0  0  0  0  0  0  0  0  0  0  0  0
    3.8308   -0.4142   15.2969 C   0  0  0  0  0  0  0  0  0  0  0  0
    2.6484    2.1650   12.1618 C   0  0  0  0  0  0  0  0  0  0  0  0
    3.5551    2.6727   11.1905 C   0  0  0  0  0  0  0  0  0  0  0  0
    3.1440    3.5000   10.1307 C   0  0  0  0  0  0  0  0  0  0  0  0
    1.7867    3.8626   10.0269 C   0  0  0  0  0  0  0  0  0  0  0  0
    0.9822    4.6325    9.1347 C   0  0  0  0  0  0  0  0  0  0  0  0
   -0.2732    4.6479    9.5152 N   0  0  0  0  0  0  0  0  0  0  0  0
   -0.3325    3.9082   10.6482 N   0  0  0  0  0  0  0  0  0  0  0  0
    0.8870    3.3849   11.0250 C   0  0  0  0  0  0  0  0  0  0  0  0
    1.2921    2.5495   12.0775 C   0  0  0  0  0  0  0  0  0  0  0  0
   -0.3657   -2.5881   15.8173 C   0  0  0  0  0  0  0  0  0  0  0  0
   -1.7398   -2.8314   15.7049 C   0  0  0  0  0  0  0  0  0  0  0  0
   -2.5330   -2.0788   14.8167 C   0  0  0  0  0  0  0  0  0  0  0  0
   -3.9135   -2.3364   14.7421 N   0  0  0  0  0  0  0  0  0  0  0  0
   -4.6386   -2.4033   13.4779 C   0  0  0  0  0  0  0  0  0  0  0  0
   -5.3719   -3.7537   13.3659 C   0  0  0  0  0  0  0  0  0  0  0  0
   -6.2007   -3.9674   14.5070 O   0  0  0  0  0  0  0  0  0  0  0  0
   -5.4474   -4.0157   15.7160 C   0  0  0  0  0  0  0  0  0  0  0  0
   -4.7018   -2.6897   15.9210 C   0  0  0  0  0  0  0  0  0  0  0  0
   -2.9718    1.1429   11.7831 H   0  0  0  0  0  0  0  0  0  0  0  0
   -1.7310    1.4948   12.9793 H   0  0  0  0  0  0  0  0  0  0  0  0
   -1.4307    0.2999   11.6897 H   0  0  0  0  0  0  0  0  0  0  0  0
   -0.0889   -0.0319   13.5992 H   0  0  0  0  0  0  0  0  0  0  0  0
    2.0117   -1.8737   16.0673 H   0  0  0  0  0  0  0  0  0  0  0  0
    5.1914    1.9427   13.2964 H   0  0  0  0  0  0  0  0  0  0  0  0
    6.7688    0.9855   15.2391 H   0  0  0  0  0  0  0  0  0  0  0  0
    6.1871   -0.7681   17.3544 H   0  0  0  0  0  0  0  0  0  0  0  0
    4.5965    2.4049   11.2352 H   0  0  0  0  0  0  0  0  0  0  0  0
    3.8682    3.8454    9.4026 H   0  0  0  0  0  0  0  0  0  0  0  0
    1.2785    5.1634    8.2412 H   0  0  0  0  0  0  0  0  0  0  0  0
   -1.2132    3.7900   11.1278 H   0  0  0  0  0  0  0  0  0  0  0  0
    0.5783    2.1893   12.8062 H   0  0  0  0  0  0  0  0  0  0  0  0
    0.2079   -3.1960   16.4989 H   0  0  0  0  0  0  0  0  0  0  0  0
   -2.1690   -3.6132   16.3121 H   0  0  0  0  0  0  0  0  0  0  0  0
   -3.9561   -2.2815   12.6396 H   0  0  0  0  0  0  0  0  0  0  0  0
   -5.3658   -1.6001   13.4172 H   0  0  0  0  0  0  0  0  0  0  0  0
   -5.9881   -3.7793   12.4664 H   0  0  0  0  0  0  0  0  0  0  0  0
   -4.6547   -4.5688   13.2814 H   0  0  0  0  0  0  0  0  0  0  0  0
   -6.1186   -4.1927   16.5587 H   0  0  0  0  0  0  0  0  0  0  0  0
   -4.7471   -4.8485   15.6882 H   0  0  0  0  0  0  0  0  0  0  0  0
   -5.4383   -1.9133   16.1268 H   0  0  0  0  0  0  0  0  0  0  0  0
   -4.0689   -2.7671   16.7985 H   0  0  0  0  0  0  0  0  0  0  0  0
  1  2  1  0
  1 34  1  0
  1 35  1  0
  1 36  1  0
  2  3  1  0
  3  4  2  0
  3 27  1  0
  4  5  1  0
  4 37  1  0
  5  6  1  0
  5 25  2  0
  6  7  1  0
  6 38  1  0
  7  8  2  0
  7 15  1  0
  8  9  1  0
  9 10  2  0
  9 16  1  0
 10 11  1  0
 10 39  1  0
 11 12  1  0
 11 15  1  0
 12 13  2  0
 12 40  1  0
 13 14  1  0
 13 41  1  0
 14 15  2  0
 16 17  2  0
 16 24  1  0
 17 18  1  0
 17 42  1  0
 18 19  2  0
 18 43  1  0
 19 20  1  0
 19 23  1  0
 20 21  2  0
 20 44  1  0
 21 22  1  0
 22 23  1  0
 22 45  1  0
 23 24  2  0
 24 46  1  0
 25 26  1  0
 25 47  1  0
 26 27  2  0
 26 48  1  0
 27 28  1  0
 28 29  1  0
 28 33  1  0
 29 30  1  0
 29 49  1  0
 29 50  1  0
 30 31  1  0
 30 51  1  0
 30 52  1  0
 31 32  1  0
 32 33  1  0
 32 53  1  0
 32 54  1  0
 33 55  1  0
 33 56  1  0
M  END
>  <s_m_entry_id>  (1) 
1115

>  <IC50[nM]>  (1) 
0.44

>  <s_m_Source_Path>  (1) 
/projects/mai/users/kmzp800_harry/pmx_colab/docking_jobs/syk

>  <s_m_Source_File>  (1) 
tnks2_lig.sdf

>  <i_m_Source_File_Index>  (1) 
1

>  <s_m_job_name>  (1) 
glide-dock_SP_syk_mcs

>  <r_i_docking_score>  (1) 
-6.62761894994274

>  <r_i_glide_gscore>  (1) 
-6.62761894994274

>  <r_i_glide_emodel>  (1) 
-53.1370623298578

>  <index_string>  (1) 
0:0:0

$$$$
