7:0:0
     RDKit          3D

 47 49  0  0  1  0  0  0  0  0999 V2000
   33.4160   35.6370   19.8180 C   0  0  0  0  0  0  0  0  0  0  0  0
   33.3550   36.9150   20.3880 C   0  0  0  0  0  0  0  0  0  0  0  0
   33.1240   37.0540   21.7500 C   0  0  0  0  0  0  0  0  0  0  0  0
   33.0650   38.3110   22.3470 C   0  0  0  0  0  0  0  0  0  0  0  0
   32.8380   38.4110   23.6820 N   0  0  0  0  0  0  0  0  0  0  0  0
   32.6640   37.3010   24.4530 C   0  0  0  0  0  0  0  0  0  0  0  0
   32.4240   37.4170   25.8610 N   0  0  0  0  0  0  0  0  0  0  0  0
   32.7170   36.0680   23.8840 N   0  0  0  0  0  0  0  0  0  0  0  0
   32.9430   35.9130   22.5500 C   0  0  0  0  0  0  0  0  0  0  0  0
   32.9930   34.6670   21.9830 N   0  0  0  0  0  0  0  0  0  0  0  0
   32.7990   33.4850   22.8180 C   0  0  0  0  0  0  0  0  0  0  0  0
   33.2210   34.5150   20.6400 C   0  0  0  0  0  0  0  0  0  0  0  0
   33.2600   33.3620   20.1270 O   0  0  0  0  0  0  0  0  0  0  0  0
   32.3460   38.6760   26.5950 C   0  0  0  0  0  0  0  0  0  0  0  0
   33.7330   39.1460   27.0040 C   0  0  0  0  0  0  0  0  0  0  0  0
   31.4280   38.5400   27.8030 C   0  0  0  0  0  0  0  0  0  0  0  0
   31.4230   36.8690   28.4250 S   0  0  0  0  0  0  0  0  0  0  0  0
   32.8300   36.3530   28.5240 O   0  0  0  0  0  0  0  0  0  0  0  0
   30.6400   35.9970   27.4850 O   0  0  0  0  0  0  0  0  0  0  0  0
   30.6610   36.8220   30.0310 C   0  0  0  0  0  0  0  0  0  0  0  0
   33.6270   35.4590   18.4430 O   0  0  0  0  0  0  0  0  0  0  0  0
   37.2590   35.9290   17.9700 C   0  0  0  0  0  0  0  0  0  0  0  0
   36.0050   35.8070   18.5720 C   0  0  0  0  0  0  0  0  0  0  0  0
   34.8660   35.5660   17.7970 C   0  0  0  0  0  0  0  0  0  0  0  0
   34.9900   35.4810   16.3960 C   0  0  0  0  0  0  0  0  0  0  0  0
   33.8980   35.3350   15.6050 F   0  0  0  0  0  0  0  0  0  0  0  0
   36.2470   35.6050   15.7970 C   0  0  0  0  0  0  0  0  0  0  0  0
   37.3820   35.8200   16.5830 C   0  0  0  0  0  0  0  0  0  0  0  0
   38.5990   35.9390   15.9990 F   0  0  0  0  0  0  0  0  0  0  0  0
   33.4898   37.8066   19.7580 H   0  0  0  0  0  0  0  0  0  0  0  0
   33.2016   39.2182   21.7401 H   0  0  0  0  0  0  0  0  0  0  0  0
   32.2969   36.5458   26.3955 H   0  0  0  0  0  0  0  0  0  0  0  0
   32.8463   33.7734   23.8785 H   0  0  0  0  0  0  0  0  0  0  0  0
   31.8160   33.0410   22.6023 H   0  0  0  0  0  0  0  0  0  0  0  0
   33.5885   32.7501   22.6023 H   0  0  0  0  0  0  0  0  0  0  0  0
   31.9148   39.4396   25.9309 H   0  0  0  0  0  0  0  0  0  0  0  0
   33.8033   39.1698   28.1015 H   0  0  0  0  0  0  0  0  0  0  0  0
   34.4878   38.4535   26.6032 H   0  0  0  0  0  0  0  0  0  0  0  0
   33.9113   40.1547   26.6032 H   0  0  0  0  0  0  0  0  0  0  0  0
   31.7768   39.2171   28.5966 H   0  0  0  0  0  0  0  0  0  0  0  0
   30.4048   38.7993   27.4935 H   0  0  0  0  0  0  0  0  0  0  0  0
   31.4387   36.8700   30.8074 H   0  0  0  0  0  0  0  0  0  0  0  0
   29.9811   37.6799   30.1395 H   0  0  0  0  0  0  0  0  0  0  0  0
   30.0917   35.8870   30.1395 H   0  0  0  0  0  0  0  0  0  0  0  0
   38.1503   36.1110   18.5884 H   0  0  0  0  0  0  0  0  0  0  0  0
   35.9123   35.9012   19.6640 H   0  0  0  0  0  0  0  0  0  0  0  0
   36.3428   35.5331   14.7035 H   0  0  0  0  0  0  0  0  0  0  0  0
  1  2  2  0
  1 12  1  0
  1 21  1  0
  2  3  1  0
  2 30  1  0
  3  4  2  0
  3  9  1  0
  4  5  1  0
  4 31  1  0
  5  6  2  0
  6  7  1  0
  6  8  1  0
  7 14  1  0
  7 32  1  0
  8  9  2  0
  9 10  1  0
 10 11  1  0
 10 12  1  0
 11 33  1  0
 11 34  1  0
 11 35  1  0
 12 13  2  0
 14 15  1  0
 14 16  1  0
 14 36  1  0
 15 37  1  0
 15 38  1  0
 15 39  1  0
 16 17  1  0
 16 40  1  0
 16 41  1  0
 17 18  2  0
 17 20  1  0
 17 19  2  0
 20 42  1  0
 20 43  1  0
 20 44  1  0
 21 24  1  0
 22 23  2  0
 22 28  1  0
 22 45  1  0
 23 24  1  0
 23 46  1  0
 24 25  2  0
 25 26  1  0
 25 27  1  0
 27 28  2  0
 27 47  1  0
 28 29  1  0
M  END
>  <s_m_entry_id>  (1) 
1361

>  <MODEL>  (1) 
1

>  <REMARK>  (1) 
 VINA RESULT:    -7.581      0.000      0.000
 INTER + INTRA:         -10.742
 INTER:                  -9.797
 INTRA:                  -0.945
 UNBOUND:                -0.945
  Name = /scratch/kmzp800/tmp_vru1x80/tmp3lzh_0tc.pdb
  8 active torsions:
  status: ('A' for Active; 'I' for Inactive)
    1  A    between atoms: C3_3  and  O1_4
    2  A    between atoms: O1_4  and  C4_5
    3  A    between atoms: N2_11  and  C9_12
    4  A    between atoms: C9_12  and  C10_13
    5  A    between atoms: C9_12  and  C11_14
    6  A    between atoms: C11_14  and  S1_15
    7  A    between atoms: S1_15  and  C12_18
    8  A    between atoms: N4_21  and  C14_22
                            x       y       z     vdW  Elec       q    Type
                         _______ _______ _______ _____ _____    ______ ____

>  <TORSDO>  (1) 
F 5

>  <grid_id>  (1) 
p38-prepared

>  <grid_path>  (1) 
/projects/mai/users/kmzp800_harry/pmx_colab/docking_jobs/p38/vina_docking/input_files/p38_vina.pdbqt

>  <grid_filename>  (1) 
p38_vina.pdbqt

>  <docking_score>  (1) 
-7.581

>  <compound_name>  (1) 
lig_p38a_3flq

>  <index_string>  (1) 
7:0:0

>  <s_m_Source_Path>  (1) 
/projects/mai/users/kmzp800_harry/pmx_colab/docking_jobs/p38

>  <s_m_Source_File>  (1) 
p38_confs_vina_naive.sdf

>  <i_m_Source_File_Index>  (1) 
8

$$$$
