8:0:0
     RDKit          3D

 46 49  0  0  1  0  0  0  0  0999 V2000
   33.8255   34.8293   23.6546 C   0  0  0  0  0  0  0  0  0  0  0  0
   34.8965   39.2706   21.8764 C   0  0  0  0  0  0  0  0  0  0  0  0
   33.4063   38.8450   26.4290 C   0  0  0  0  0  0  0  0  0  0  0  0
   31.8778   38.8633   26.6225 C   0  0  0  0  0  0  0  0  0  0  0  0
   34.1447   38.9787   24.0086 C   0  0  0  0  0  0  0  0  0  0  0  0
   34.4964   35.0636   21.3249 C   0  0  0  0  0  0  0  0  0  0  0  0
   35.0345   35.8938   20.2459 C   0  0  0  0  0  0  0  0  0  0  0  0
   35.1803   37.2296   20.3946 C   0  0  0  0  0  0  0  0  0  0  0  0
   34.8313   37.8794   21.6573 C   0  0  0  0  0  0  0  0  0  0  0  0
   34.3779   37.0790   22.7272 C   0  0  0  0  0  0  0  0  0  0  0  0
   33.8121   39.5492   25.2180 N   0  0  0  0  0  0  0  0  0  0  0  0
   34.2498   33.8725   21.1407 O   0  0  0  0  0  0  0  0  0  0  0  0
   34.2730   35.6651   22.5272 N   0  0  0  0  0  0  0  0  0  0  0  0
   34.0447   37.6582   23.9000 N   0  0  0  0  0  0  0  0  0  0  0  0
   34.5515   39.8214   23.0609 N   0  0  0  0  0  0  0  0  0  0  0  0
   34.1085   39.4791   27.6377 C   0  0  0  0  0  0  0  0  0  0  0  0
   31.1956   38.0230   25.6623 N   0  0  0  0  0  0  0  0  0  0  0  0
   31.1181   36.6848   25.7880 N   0  0  0  0  0  0  0  0  0  0  0  0
   30.4536   36.3975   24.6823 C   0  0  0  0  0  0  0  0  0  0  0  0
   30.1530   37.4877   23.9195 N   0  0  0  0  0  0  0  0  0  0  0  0
   30.6169   38.5143   24.5513 N   0  0  0  0  0  0  0  0  0  0  0  0
   34.2492   33.8239   23.6281 H   0  0  0  0  0  0  0  0  0  0  0  0
   34.1143   35.2424   24.6214 H   0  0  0  0  0  0  0  0  0  0  0  0
   32.7395   34.7369   23.6411 H   0  0  0  0  0  0  0  0  0  0  0  0
   35.2250   39.9472   21.1013 H   0  0  0  0  0  0  0  0  0  0  0  0
   33.7380   37.8071   26.3793 H   0  0  0  0  0  0  0  0  0  0  0  0
   31.4873   39.8797   26.5538 H   0  0  0  0  0  0  0  0  0  0  0  0
   31.6182   38.5000   27.6169 H   0  0  0  0  0  0  0  0  0  0  0  0
   35.5423   37.8552   19.5912 H   0  0  0  0  0  0  0  0  0  0  0  0
   33.8964   40.5584   25.2838 H   0  0  0  0  0  0  0  0  0  0  0  0
   33.8612   38.9497   28.5583 H   0  0  0  0  0  0  0  0  0  0  0  0
   35.1928   39.4480   27.5237 H   0  0  0  0  0  0  0  0  0  0  0  0
   33.8165   40.5223   27.7672 H   0  0  0  0  0  0  0  0  0  0  0  0
   30.1835   35.3870   24.4132 H   0  0  0  0  0  0  0  0  0  0  0  0
   35.2898   35.2235   19.0738 O   0  0  0  0  0  0  0  0  0  0  0  0
   37.8153   36.5992   16.0270 C   0  0  0  0  0  0  0  0  0  0  0  0
   38.3633   36.3493   17.3036 C   0  0  0  0  0  0  0  0  0  0  0  0
   37.5214   35.9623   18.3694 C   0  0  0  0  0  0  0  0  0  0  0  0
   36.1522   35.7061   18.1247 C   0  0  0  0  0  0  0  0  0  0  0  0
   35.6722   35.8064   16.8132 C   0  0  0  0  0  0  0  0  0  0  0  0
   36.4634   36.3361   15.7840 C   0  0  0  0  0  0  0  0  0  0  0  0
   38.5546   37.1500   15.0460 F   0  0  0  0  0  0  0  0  0  0  0  0
   39.4038   36.5681   17.4934 H   0  0  0  0  0  0  0  0  0  0  0  0
   38.0258   35.8867   19.6210 F   0  0  0  0  0  0  0  0  0  0  0  0
   34.6417   35.5496   16.6104 H   0  0  0  0  0  0  0  0  0  0  0  0
   36.0376   36.5237   14.8090 H   0  0  0  0  0  0  0  0  0  0  0  0
  1 13  1  0
  1 22  1  0
  1 23  1  0
  1 24  1  0
  2  9  2  0
  2 15  1  0
  2 25  1  0
  3  4  1  0
  3 11  1  0
  3 16  1  0
  3 26  1  0
  4 17  1  0
  4 27  1  0
  4 28  1  0
  5 11  1  0
  5 14  1  0
  5 15  2  0
  6  7  1  0
  6 12  2  0
  6 13  1  0
  7  8  2  0
  7 35  1  0
  8  9  1  0
  8 29  1  0
  9 10  1  0
 10 13  1  0
 10 14  2  0
 11 30  1  0
 16 31  1  0
 16 32  1  0
 16 33  1  0
 17 18  1  0
 17 21  1  0
 18 19  2  0
 19 20  1  0
 19 34  1  0
 20 21  2  0
 35 39  1  0
 36 37  2  0
 36 41  1  0
 36 42  1  0
 37 38  1  0
 37 43  1  0
 38 39  2  0
 38 44  1  0
 39 40  1  0
 40 41  2  0
 40 45  1  0
 41 46  1  0
M  END
>  <s_m_entry_id>  (1) 
826

>  <s_m_Source_Path>  (1) 
/projects/mai/users/kmzp800_harry/pmx_colab/docking_jobs/p38/glide-dock_SP_p38_mcs_docking_2

>  <s_m_Source_File>  (1) 
glide-dock_SP_p38_mcs_docking_2_pv.maegz

>  <i_m_Source_File_Index>  (1) 
10

>  <s_pdb_PDB_TITLE>  (1) 
MX MODEL

>  <r_i_docking_score>  (1) 
-7.39820925625809

>  <r_i_glide_gscore>  (1) 
-7.39820925625809

>  <r_i_glide_emodel>  (1) 
-41.2341639756469

>  <index_string>  (1) 
8:0:0

$$$$
