12:0:0
     RDKit          3D

 59 63  0  0  1  0  0  0  0  0999 V2000
   38.9517   36.3532   16.0429 F   0  0  0  0  0  0  0  0  0  0  0  0
   37.8638   36.0895   16.7907 C   0  0  0  0  0  0  0  0  0  0  0  0
   37.9326   36.1655   18.1927 C   0  0  0  0  0  0  0  0  0  0  0  0
   36.7756   35.9499   18.9651 C   0  0  0  0  0  0  0  0  0  0  0  0
   36.8845   35.9653   20.3111 F   0  0  0  0  0  0  0  0  0  0  0  0
   35.5391   35.6565   18.3300 C   0  0  0  0  0  0  0  0  0  0  0  0
   35.4961   35.5491   16.9272 C   0  0  0  0  0  0  0  0  0  0  0  0
   36.6510   35.7723   16.1611 C   0  0  0  0  0  0  0  0  0  0  0  0
   34.3680   35.3993   19.0027 O   0  0  0  0  0  0  0  0  0  0  0  0
   34.0937   36.0269   20.1894 C   0  0  0  0  0  0  0  0  0  0  0  0
   34.2430   37.3597   20.3351 C   0  0  0  0  0  0  0  0  0  0  0  0
   33.6264   35.1746   21.2848 C   0  0  0  0  0  0  0  0  0  0  0  0
   33.6201   33.9476   21.1621 O   0  0  0  0  0  0  0  0  0  0  0  0
   33.2374   35.8008   22.4391 N   0  0  0  0  0  0  0  0  0  0  0  0
   32.5646   34.9917   23.4995 C   0  0  0  0  0  0  0  0  0  0  0  0
   33.5277   34.6563   24.6616 C   0  0  0  0  0  0  0  0  0  0  0  0
   32.9517   33.6086   25.6234 C   0  0  0  0  0  0  0  0  0  0  0  0
   31.2080   35.5852   23.9615 C   0  0  0  0  0  0  0  0  0  0  0  0
   30.4144   34.6205   24.8529 C   0  0  0  0  0  0  0  0  0  0  0  0
   31.3736   34.1931   26.3606 S   0  0  0  0  0  0  0  0  0  0  0  0
   30.7232   33.0622   27.0383 O   0  0  0  0  0  0  0  0  0  0  0  0
   31.6531   35.4404   27.0864 O   0  0  0  0  0  0  0  0  0  0  0  0
   33.5331   37.1930   22.6825 C   0  0  0  0  0  0  0  0  0  0  0  0
   34.0098   37.9922   21.6223 C   0  0  0  0  0  0  0  0  0  0  0  0
   33.4037   37.7547   23.8979 N   0  0  0  0  0  0  0  0  0  0  0  0
   33.7092   39.0381   24.0715 C   0  0  0  0  0  0  0  0  0  0  0  0
   34.1523   39.8710   23.1305 N   0  0  0  0  0  0  0  0  0  0  0  0
   34.3044   39.3447   21.8962 C   0  0  0  0  0  0  0  0  0  0  0  0
   33.5565   39.5486   25.3468 N   0  0  0  0  0  0  0  0  0  0  0  0
   33.0655   38.7459   26.4706 C   0  0  0  0  0  0  0  0  0  0  0  0
   34.1626   37.8645   27.0941 C   0  0  0  0  0  0  0  0  0  0  0  0
   35.0903   38.6681   28.0139 C   0  0  0  0  0  0  0  0  0  0  0  0
   34.3296   39.3299   29.0128 O   0  0  0  0  0  0  0  0  0  0  0  0
   33.4266   40.2837   28.4722 C   0  0  0  0  0  0  0  0  0  0  0  0
   32.4033   39.5979   27.5549 C   0  0  0  0  0  0  0  0  0  0  0  0
   38.8741   36.3833   18.6748 H   0  0  0  0  0  0  0  0  0  0  0  0
   34.5640   35.3082   16.4356 H   0  0  0  0  0  0  0  0  0  0  0  0
   36.6030   35.7208   15.0891 H   0  0  0  0  0  0  0  0  0  0  0  0
   34.5784   37.9785   19.5152 H   0  0  0  0  0  0  0  0  0  0  0  0
   32.2757   34.0269   23.0804 H   0  0  0  0  0  0  0  0  0  0  0  0
   34.4675   34.2779   24.2606 H   0  0  0  0  0  0  0  0  0  0  0  0
   33.7759   35.5517   25.2279 H   0  0  0  0  0  0  0  0  0  0  0  0
   32.7603   32.6678   25.1082 H   0  0  0  0  0  0  0  0  0  0  0  0
   33.6447   33.4018   26.4370 H   0  0  0  0  0  0  0  0  0  0  0  0
   31.3344   36.5128   24.5144 H   0  0  0  0  0  0  0  0  0  0  0  0
   30.6034   35.8328   23.0905 H   0  0  0  0  0  0  0  0  0  0  0  0
   30.1733   33.6988   24.3242 H   0  0  0  0  0  0  0  0  0  0  0  0
   29.4719   35.0696   25.1727 H   0  0  0  0  0  0  0  0  0  0  0  0
   34.6868   39.9971   21.1268 H   0  0  0  0  0  0  0  0  0  0  0  0
   33.7519   40.5356   25.4891 H   0  0  0  0  0  0  0  0  0  0  0  0
   32.2855   38.0908   26.0837 H   0  0  0  0  0  0  0  0  0  0  0  0
   34.7463   37.3577   26.3262 H   0  0  0  0  0  0  0  0  0  0  0  0
   33.6903   37.0782   27.6832 H   0  0  0  0  0  0  0  0  0  0  0  0
   35.6889   39.3837   27.4476 H   0  0  0  0  0  0  0  0  0  0  0  0
   35.7747   37.9890   28.5167 H   0  0  0  0  0  0  0  0  0  0  0  0
   33.9704   41.0677   27.9434 H   0  0  0  0  0  0  0  0  0  0  0  0
   32.9053   40.7495   29.3056 H   0  0  0  0  0  0  0  0  0  0  0  0
   31.7669   38.9566   28.1650 H   0  0  0  0  0  0  0  0  0  0  0  0
   31.7474   40.3397   27.0998 H   0  0  0  0  0  0  0  0  0  0  0  0
  1  2  1  0
  2  8  2  0
  2  3  1  0
  3  4  2  0
  3 36  1  0
  4  5  1  0
  4  6  1  0
  6  7  2  0
  6  9  1  0
  7  8  1  0
  7 37  1  0
  8 38  1  0
  9 10  1  0
 10 11  2  0
 10 12  1  0
 11 24  1  0
 11 39  1  0
 12 13  2  0
 12 14  1  0
 14 15  1  0
 14 23  1  0
 15 16  1  0
 15 18  1  0
 15 40  1  0
 16 17  1  0
 16 41  1  0
 16 42  1  0
 17 20  1  0
 17 43  1  0
 17 44  1  0
 18 19  1  0
 18 45  1  0
 18 46  1  0
 19 20  1  0
 19 47  1  0
 19 48  1  0
 20 21  2  0
 20 22  2  0
 23 24  2  0
 23 25  1  0
 24 28  1  0
 25 26  2  0
 26 27  1  0
 26 29  1  0
 27 28  2  0
 28 49  1  0
 29 30  1  0
 29 50  1  0
 30 35  1  0
 30 31  1  0
 30 51  1  0
 31 32  1  0
 31 52  1  0
 31 53  1  0
 32 33  1  0
 32 54  1  0
 32 55  1  0
 33 34  1  0
 34 35  1  0
 34 56  1  0
 34 57  1  0
 35 58  1  0
 35 59  1  0
M  END
>  <s_m_entry_id>  (1) 
729

>  <i_f3d_flags>  (1) 
0

>  <r_lp_tautomer_probability>  (1) 
1

>  <r_epik_Ionization_Penalty>  (1) 
  0.0000

>  <r_epik_State_Penalty>  (1) 
  0.0000

>  <i_epik_Tot_Q>  (1) 
0

>  <s_m_job_name>  (1) 
glide-dock_SP_p38_all_ligs_no_cons_10_poses

>  <r_i_docking_score>  (1) 
-7.62966564060948

>  <r_i_glide_gscore>  (1) 
-7.62966564060948

>  <r_i_glide_emodel>  (1) 
-73.7292297877742

>  <index_string>  (1) 
12:0:0

$$$$
