3:0:0
     RDKit          3D

 48 51  0  0  1  0  0  0  0  0999 V2000
   35.8310   36.4830   20.5950 C   0  0  0  0  0  0  0  0  0  0  0  0
   35.6860   37.8400   20.8820 C   0  0  0  0  0  0  0  0  0  0  0  0
   34.9970   38.2320   22.0230 C   0  0  0  0  0  0  0  0  0  0  0  0
   34.8340   39.5780   22.3400 C   0  0  0  0  0  0  0  0  0  0  0  0
   34.1530   39.9290   23.4610 N   0  0  0  0  0  0  0  0  0  0  0  0
   33.6240   38.9850   24.2850 C   0  0  0  0  0  0  0  0  0  0  0  0
   32.9140   39.3930   25.4570 N   0  0  0  0  0  0  0  0  0  0  0  0
   33.7740   37.6640   23.9910 N   0  0  0  0  0  0  0  0  0  0  0  0
   34.4480   37.2610   22.8780 C   0  0  0  0  0  0  0  0  0  0  0  0
   34.5930   35.9310   22.5860 N   0  0  0  0  0  0  0  0  0  0  0  0
   34.0180   34.9280   23.4780 C   0  0  0  0  0  0  0  0  0  0  0  0
   35.2710   35.5290   21.4640 C   0  0  0  0  0  0  0  0  0  0  0  0
   35.3970   34.2990   21.2060 O   0  0  0  0  0  0  0  0  0  0  0  0
   32.2920   38.4460   26.3750 C   0  0  0  0  0  0  0  0  0  0  0  0
   31.7030   39.1910   27.5840 C   0  0  0  0  0  0  0  0  0  0  0  0
   32.7390   39.4200   28.6950 C   0  0  0  0  0  0  0  0  0  0  0  0
   34.0480   39.2140   28.2260 O   0  0  0  0  0  0  0  0  0  0  0  0
   34.1590   37.8300   28.0050 C   0  0  0  0  0  0  0  0  0  0  0  0
   33.3210   37.3890   26.7930 C   0  0  0  0  0  0  0  0  0  0  0  0
   36.5550   36.0740   19.3510 C   0  0  0  0  0  0  0  0  0  0  0  0
   33.3410   35.1680   17.5600 C   0  0  0  0  0  0  0  0  0  0  0  0
   34.2610   35.4510   18.5730 C   0  0  0  0  0  0  0  0  0  0  0  0
   35.5910   35.7520   18.2550 C   0  0  0  0  0  0  0  0  0  0  0  0
   35.9960   35.7740   16.9110 C   0  0  0  0  0  0  0  0  0  0  0  0
   37.2790   36.0680   16.5800 F   0  0  0  0  0  0  0  0  0  0  0  0
   35.0740   35.4900   15.8990 C   0  0  0  0  0  0  0  0  0  0  0  0
   33.7490   35.1860   16.2220 C   0  0  0  0  0  0  0  0  0  0  0  0
   32.8580   34.9130   15.2400 F   0  0  0  0  0  0  0  0  0  0  0  0
   36.1151   38.5963   20.2083 H   0  0  0  0  0  0  0  0  0  0  0  0
   35.2555   40.3543   21.6845 H   0  0  0  0  0  0  0  0  0  0  0  0
   32.8386   40.3996   25.6618 H   0  0  0  0  0  0  0  0  0  0  0  0
   34.1887   35.2258   24.5231 H   0  0  0  0  0  0  0  0  0  0  0  0
   32.9369   34.8480   23.2914 H   0  0  0  0  0  0  0  0  0  0  0  0
   34.4953   33.9546   23.2914 H   0  0  0  0  0  0  0  0  0  0  0  0
   31.4601   37.9284   25.8750 H   0  0  0  0  0  0  0  0  0  0  0  0
   31.3253   40.1676   27.2469 H   0  0  0  0  0  0  0  0  0  0  0  0
   30.8977   38.5682   28.0008 H   0  0  0  0  0  0  0  0  0  0  0  0
   32.6485   40.4533   29.0613 H   0  0  0  0  0  0  0  0  0  0  0  0
   32.5439   38.7006   29.5039 H   0  0  0  0  0  0  0  0  0  0  0  0
   35.2143   37.5799   27.8211 H   0  0  0  0  0  0  0  0  0  0  0  0
   33.7843   37.3048   28.8960 H   0  0  0  0  0  0  0  0  0  0  0  0
   32.7891   36.4613   27.0506 H   0  0  0  0  0  0  0  0  0  0  0  0
   34.0088   37.2393   25.9477 H   0  0  0  0  0  0  0  0  0  0  0  0
   37.2074   36.8980   19.0264 H   0  0  0  0  0  0  0  0  0  0  0  0
   37.1512   35.1759   19.5702 H   0  0  0  0  0  0  0  0  0  0  0  0
   32.2973   34.9314   17.8143 H   0  0  0  0  0  0  0  0  0  0  0  0
   33.9390   35.4373   19.6247 H   0  0  0  0  0  0  0  0  0  0  0  0
   35.3924   35.5059   14.8462 H   0  0  0  0  0  0  0  0  0  0  0  0
  1  2  2  0
  1 12  1  0
  1 20  1  0
  2  3  1  0
  3  4  2  0
  3  9  1  0
  4  5  1  0
  5  6  2  0
  6  7  1  0
  6  8  1  0
  7 14  1  0
  8  9  2  0
  9 10  1  0
 10 11  1  0
 10 12  1  0
 12 13  2  0
 14 19  1  0
 14 15  1  0
 15 16  1  0
 16 17  1  0
 17 18  1  0
 18 19  1  0
 20 23  1  0
 21 22  2  0
 21 27  1  0
 22 23  1  0
 23 24  2  0
 24 25  1  0
 24 26  1  0
 26 27  2  0
 27 28  1  0
  2 29  1  0
  4 30  1  0
  7 31  1  0
 11 32  1  0
 11 33  1  0
 11 34  1  0
 14 35  1  0
 15 36  1  0
 15 37  1  0
 16 38  1  0
 16 39  1  0
 18 40  1  0
 18 41  1  0
 19 42  1  0
 19 43  1  0
 20 44  1  0
 20 45  1  0
 21 46  1  0
 22 47  1  0
 26 48  1  0
M  END
>  <s_m_entry_id>  (1) 
52

>  <MODEL>  (1) 
8

>  <REMARK>  (1) 
 VINA RESULT:    -9.984      1.280      2.210
 INTER + INTRA:          -8.761
 INTER:                  -9.219
 INTRA:                   0.458
 UNBOUND:                 2.975
  Name = /scratch/kmzp800/tmpvhn8hc5d/tmp4pxccwht.pdb
  4 active torsions:
  status: ('A' for Active; 'I' for Inactive)
    1  A    between atoms: C3_3  and  C4_4
    2  A    between atoms: C4_4  and  C5_5
    3  A    between atoms: N2_11  and  C10_12
    4  A    between atoms: N4_20  and  C16_21
                            x       y       z     vdW  Elec       q    Type
                         _______ _______ _______ _____ _____    ______ ____

>  <TORSDO>  (1) 
F 3

>  <grid_id>  (1) 
p38-prepared

>  <grid_path>  (1) 
/projects/mai/users/kmzp800_harry/pmx_colab/docking_jobs/p38/vina_docking/input_files/p38_vina.pdbqt

>  <grid_filename>  (1) 
p38_vina.pdbqt

>  <docking_score>  (1) 
-9.984

>  <compound_name>  (1) 
lig_p38a_2j

>  <index_string>  (1) 
3:0:0

$$$$
