21:0:0
     RDKit          3D

 46 50  0  0  1  0  0  0  0  0999 V2000
   -4.1266   -1.6804   15.1567 C   0  0  0  0  0  0  0  0  0  0  0  0
   -3.4924   -0.8151   14.2238 O   0  0  0  0  0  0  0  0  0  0  0  0
   -2.1114   -0.8015   14.1832 C   0  0  0  0  0  0  0  0  0  0  0  0
   -1.2942   -1.6051   15.0162 C   0  0  0  0  0  0  0  0  0  0  0  0
    0.1064   -1.5154   14.9457 C   0  0  0  0  0  0  0  0  0  0  0  0
    0.7265   -0.6301   14.0439 C   0  0  0  0  0  0  0  0  0  0  0  0
    2.1308   -0.5986   14.0460 N   0  0  0  0  0  0  0  0  0  0  0  0
    3.0215    0.4621   13.8097 C   0  0  0  0  0  0  0  0  0  0  0  0
    2.6989    1.4477   13.0175 N   0  0  0  0  0  0  0  0  0  0  0  0
    3.5926    2.4781   12.8088 C   0  0  0  0  0  0  0  0  0  0  0  0
    4.8300    2.5166   13.4027 C   0  0  0  0  0  0  0  0  0  0  0  0
    5.1558    1.4951   14.2396 N   0  0  0  0  0  0  0  0  0  0  0  0
    6.2722    1.2579   15.0174 C   0  0  0  0  0  0  0  0  0  0  0  0
    6.0301    0.1105   15.7221 C   0  0  0  0  0  0  0  0  0  0  0  0
    4.7770   -0.3960   15.4174 N   0  0  0  0  0  0  0  0  0  0  0  0
    4.2715    0.4204   14.4907 C   0  0  0  0  0  0  0  0  0  0  0  0
    3.1537    3.5245   11.8602 C   0  0  0  0  0  0  0  0  0  0  0  0
    2.7805    3.1488   10.5501 C   0  0  0  0  0  0  0  0  0  0  0  0
    2.3220    4.0858    9.6042 C   0  0  0  0  0  0  0  0  0  0  0  0
    2.2375    5.4490    9.9474 C   0  0  0  0  0  0  0  0  0  0  0  0
    1.8247    6.5512    9.2180 N   0  0  0  0  0  0  0  0  0  0  0  0
    1.9589    7.6010    9.9704 N   0  0  0  0  0  0  0  0  0  0  0  0
    2.4301    7.2023   11.1815 N   0  0  0  0  0  0  0  0  0  0  0  0
    2.6357    5.8334   11.2473 C   0  0  0  0  0  0  0  0  0  0  0  0
    3.0973    4.8998   12.2030 C   0  0  0  0  0  0  0  0  0  0  0  0
   -0.0850    0.1445   13.1843 C   0  0  0  0  0  0  0  0  0  0  0  0
   -1.5011    0.0697   13.2528 C   0  0  0  0  0  0  0  0  0  0  0  0
   -2.3464    0.8163   12.4574 O   0  0  0  0  0  0  0  0  0  0  0  0
   -1.7734    1.5923   11.4139 C   0  0  0  0  0  0  0  0  0  0  0  0
   -5.2080   -1.5876   15.0572 H   0  0  0  0  0  0  0  0  0  0  0  0
   -3.8699   -1.4206   16.1847 H   0  0  0  0  0  0  0  0  0  0  0  0
   -3.8698   -2.7244   14.9720 H   0  0  0  0  0  0  0  0  0  0  0  0
   -1.7150   -2.2940   15.7329 H   0  0  0  0  0  0  0  0  0  0  0  0
    0.7039   -2.1314   15.6036 H   0  0  0  0  0  0  0  0  0  0  0  0
    2.5479   -1.2783   14.6684 H   0  0  0  0  0  0  0  0  0  0  0  0
    5.5541    3.3111   13.2575 H   0  0  0  0  0  0  0  0  0  0  0  0
    7.1089    1.9404   15.0137 H   0  0  0  0  0  0  0  0  0  0  0  0
    6.6596   -0.3947   16.4398 H   0  0  0  0  0  0  0  0  0  0  0  0
    2.8337    2.1089   10.2681 H   0  0  0  0  0  0  0  0  0  0  0  0
    2.0307    3.7600    8.6176 H   0  0  0  0  0  0  0  0  0  0  0  0
    2.7028    7.9062   11.8647 H   0  0  0  0  0  0  0  0  0  0  0  0
    3.3855    5.2298   13.1912 H   0  0  0  0  0  0  0  0  0  0  0  0
    0.3843    0.7958   12.4674 H   0  0  0  0  0  0  0  0  0  0  0  0
   -2.5694    2.0664   10.8400 H   0  0  0  0  0  0  0  0  0  0  0  0
   -1.1351    2.3844   11.8080 H   0  0  0  0  0  0  0  0  0  0  0  0
   -1.1979    0.9717   10.7253 H   0  0  0  0  0  0  0  0  0  0  0  0
  1  2  1  0
  1 30  1  0
  1 31  1  0
  1 32  1  0
  2  3  1  0
  3  4  2  0
  3 27  1  0
  4  5  1  0
  4 33  1  0
  5  6  2  0
  5 34  1  0
  6  7  1  0
  6 26  1  0
  7  8  1  0
  7 35  1  0
  8  9  2  0
  8 16  1  0
  9 10  1  0
 10 11  2  0
 10 17  1  0
 11 12  1  0
 11 36  1  0
 12 13  1  0
 12 16  1  0
 13 14  2  0
 13 37  1  0
 14 15  1  0
 14 38  1  0
 15 16  2  0
 17 18  2  0
 17 25  1  0
 18 19  1  0
 18 39  1  0
 19 20  2  0
 19 40  1  0
 20 21  1  0
 20 24  1  0
 21 22  2  0
 22 23  1  0
 23 24  1  0
 23 41  1  0
 24 25  2  0
 25 42  1  0
 26 27  2  0
 26 43  1  0
 27 28  1  0
 28 29  1  0
 29 44  1  0
 29 45  1  0
 29 46  1  0
M  END
>  <s_m_entry_id>  (1) 
701

>  <IC50[nM]>  (1) 
12.6

>  <s_m_Source_Path>  (1) 
/projects/mai/users/kmzp800_harry/pmx_colab/docking_jobs/syk

>  <s_m_Source_File>  (1) 
tnks2_lig.sdf

>  <i_m_Source_File_Index>  (1) 
22

>  <s_m_job_name>  (1) 
glide-dock_SP_tnks2_no_const

>  <r_i_docking_score>  (1) 
-7.14914449666738

>  <r_i_glide_gscore>  (1) 
-7.14914449666738

>  <r_i_glide_emodel>  (1) 
-67.00728166691

>  <index_string>  (1) 
21:0:0

$$$$
