29:0:0
     RDKit          3D

 46 49  0  0  1  0  0  0  0  0999 V2000
   35.9762   35.7578   16.9603 C   0  0  0  0  0  0  0  0  0  0  0  0
   37.2674   35.9474   16.4279 C   0  0  0  0  0  0  0  0  0  0  0  0
   37.4652   35.9166   15.0909 F   0  0  0  0  0  0  0  0  0  0  0  0
   38.3590   36.1590   17.2864 C   0  0  0  0  0  0  0  0  0  0  0  0
   38.1522   36.2067   18.6761 C   0  0  0  0  0  0  0  0  0  0  0  0
   36.8704   36.0194   19.2134 C   0  0  0  0  0  0  0  0  0  0  0  0
   35.7604   35.8203   18.3553 C   0  0  0  0  0  0  0  0  0  0  0  0
   34.4822   35.6555   18.8421 O   0  0  0  0  0  0  0  0  0  0  0  0
   34.1803   36.1930   20.0705 C   0  0  0  0  0  0  0  0  0  0  0  0
   34.3044   37.5188   20.2832 C   0  0  0  0  0  0  0  0  0  0  0  0
   33.7886   35.2720   21.1440 C   0  0  0  0  0  0  0  0  0  0  0  0
   33.7601   34.0534   20.9602 O   0  0  0  0  0  0  0  0  0  0  0  0
   33.5027   35.8344   22.3566 N   0  0  0  0  0  0  0  0  0  0  0  0
   33.0322   34.9771   23.4578 C   0  0  0  0  0  0  0  0  0  0  0  0
   33.6991   37.2282   22.6495 C   0  0  0  0  0  0  0  0  0  0  0  0
   34.0917   38.0866   21.6005 C   0  0  0  0  0  0  0  0  0  0  0  0
   33.5422   37.7356   23.8925 N   0  0  0  0  0  0  0  0  0  0  0  0
   33.7646   39.0368   24.0808 C   0  0  0  0  0  0  0  0  0  0  0  0
   34.1507   39.9178   23.1576 N   0  0  0  0  0  0  0  0  0  0  0  0
   34.3075   39.4433   21.9068 C   0  0  0  0  0  0  0  0  0  0  0  0
   33.5761   39.5492   25.3467 N   0  0  0  0  0  0  0  0  0  0  0  0
   32.9464   38.8500   26.4591 C   0  0  0  0  0  0  0  0  0  0  0  0
   33.1030   39.6526   27.7585 C   0  0  0  0  0  0  0  0  0  0  0  0
   32.3880   38.9453   28.9206 C   0  0  0  0  0  0  0  0  0  0  0  0
   31.0166   38.7424   28.6004 O   0  0  0  0  0  0  0  0  0  0  0  0
   30.8220   37.9236   27.4540 C   0  0  0  0  0  0  0  0  0  0  0  0
   31.4458   38.5954   26.2204 C   0  0  0  0  0  0  0  0  0  0  0  0
   35.1411   35.5854   16.2966 H   0  0  0  0  0  0  0  0  0  0  0  0
   39.3503   36.2974   16.8796 H   0  0  0  0  0  0  0  0  0  0  0  0
   38.9942   36.3490   19.3372 H   0  0  0  0  0  0  0  0  0  0  0  0
   36.7549   36.0413   20.2868 H   0  0  0  0  0  0  0  0  0  0  0  0
   34.6157   38.1794   19.4892 H   0  0  0  0  0  0  0  0  0  0  0  0
   33.8311   34.8367   24.1886 H   0  0  0  0  0  0  0  0  0  0  0  0
   32.1893   35.4442   23.9744 H   0  0  0  0  0  0  0  0  0  0  0  0
   32.6916   33.9896   23.1457 H   0  0  0  0  0  0  0  0  0  0  0  0
   34.6148   40.1505   21.1514 H   0  0  0  0  0  0  0  0  0  0  0  0
   33.7517   40.5429   25.4684 H   0  0  0  0  0  0  0  0  0  0  0  0
   33.4535   37.8899   26.5801 H   0  0  0  0  0  0  0  0  0  0  0  0
   34.1580   39.7846   27.9960 H   0  0  0  0  0  0  0  0  0  0  0  0
   32.6853   40.6545   27.6325 H   0  0  0  0  0  0  0  0  0  0  0  0
   32.8624   37.9913   29.1484 H   0  0  0  0  0  0  0  0  0  0  0  0
   32.4460   39.5610   29.8187 H   0  0  0  0  0  0  0  0  0  0  0  0
   31.2562   36.9364   27.6198 H   0  0  0  0  0  0  0  0  0  0  0  0
   29.7527   37.7729   27.3052 H   0  0  0  0  0  0  0  0  0  0  0  0
   30.9352   39.5390   26.0214 H   0  0  0  0  0  0  0  0  0  0  0  0
   31.2866   37.9641   25.3457 H   0  0  0  0  0  0  0  0  0  0  0  0
  1  7  2  0
  1  2  1  0
  1 28  1  0
  2  3  1  0
  2  4  2  0
  4  5  1  0
  4 29  1  0
  5  6  2  0
  5 30  1  0
  6  7  1  0
  6 31  1  0
  7  8  1  0
  8  9  1  0
  9 10  2  0
  9 11  1  0
 10 16  1  0
 10 32  1  0
 11 12  2  0
 11 13  1  0
 13 14  1  0
 13 15  1  0
 14 33  1  0
 14 34  1  0
 14 35  1  0
 15 16  2  0
 15 17  1  0
 16 20  1  0
 17 18  2  0
 18 19  1  0
 18 21  1  0
 19 20  2  0
 20 36  1  0
 21 22  1  0
 21 37  1  0
 22 27  1  0
 22 23  1  0
 22 38  1  0
 23 24  1  0
 23 39  1  0
 23 40  1  0
 24 25  1  0
 24 41  1  0
 24 42  1  0
 25 26  1  0
 26 27  1  0
 26 43  1  0
 26 44  1  0
 27 45  1  0
 27 46  1  0
M  END
>  <s_m_entry_id>  (1) 
745

>  <i_f3d_flags>  (1) 
0

>  <r_lp_tautomer_probability>  (1) 
1

>  <r_epik_Ionization_Penalty>  (1) 
  0.0000

>  <r_epik_State_Penalty>  (1) 
  0.0000

>  <i_epik_Tot_Q>  (1) 
0

>  <s_m_job_name>  (1) 
glide-dock_SP_p38_all_ligs_no_cons_10_poses

>  <r_i_docking_score>  (1) 
-7.8934955754794

>  <r_i_glide_gscore>  (1) 
-7.8934955754794

>  <r_i_glide_emodel>  (1) 
-62.3309907516684

>  <index_string>  (1) 
29:0:0

$$$$
