0:0:0
     RDKit          3D

 49 52  0  0  1  0  0  0  0  0999 V2000
   33.5740   35.9800   20.0990 C   0  0  0  0  0  0  0  0  0  0  0  0
   33.5040   37.3650   20.2400 C   0  0  0  0  0  0  0  0  0  0  0  0
   33.2810   37.9230   21.4910 C   0  0  0  0  0  0  0  0  0  0  0  0
   33.1920   39.3030   21.6610 C   0  0  0  0  0  0  0  0  0  0  0  0
   32.9650   39.8180   22.8970 N   0  0  0  0  0  0  0  0  0  0  0  0
   32.8200   39.0070   23.9790 C   0  0  0  0  0  0  0  0  0  0  0  0
   32.5770   39.5850   25.2670 N   0  0  0  0  0  0  0  0  0  0  0  0
   32.9060   37.6570   23.8310 N   0  0  0  0  0  0  0  0  0  0  0  0
   33.1320   37.0910   22.6140 C   0  0  0  0  0  0  0  0  0  0  0  0
   33.2250   35.7320   22.4760 N   0  0  0  0  0  0  0  0  0  0  0  0
   33.4550   35.1660   21.2470 C   0  0  0  0  0  0  0  0  0  0  0  0
   33.5820   33.9140   21.1430 O   0  0  0  0  0  0  0  0  0  0  0  0
   32.3950   38.8120   26.4910 C   0  0  0  0  0  0  0  0  0  0  0  0
   31.0080   38.1550   26.5310 C   0  0  0  0  0  0  0  0  0  0  0  0
   30.6120   37.7420   27.9550 C   0  0  0  0  0  0  0  0  0  0  0  0
   31.7290   37.7150   28.8080 O   0  0  0  0  0  0  0  0  0  0  0  0
   32.0910   39.0580   29.0040 C   0  0  0  0  0  0  0  0  0  0  0  0
   32.7050   39.6610   27.7320 C   0  0  0  0  0  0  0  0  0  0  0  0
   33.0760   34.8720   23.6500 C   0  0  0  0  0  0  0  0  0  0  0  0
   31.6230   34.4700   23.8240 C   0  0  0  0  0  0  0  0  0  0  0  0
   33.8050   35.4520   18.8210 O   0  0  0  0  0  0  0  0  0  0  0  0
   37.3930   35.9940   18.1330 C   0  0  0  0  0  0  0  0  0  0  0  0
   36.1750   35.8590   18.8060 C   0  0  0  0  0  0  0  0  0  0  0  0
   35.0020   35.5660   18.1010 C   0  0  0  0  0  0  0  0  0  0  0  0
   35.0550   35.4380   16.6970 C   0  0  0  0  0  0  0  0  0  0  0  0
   33.9320   35.2250   15.9690 F   0  0  0  0  0  0  0  0  0  0  0  0
   36.2760   35.5750   16.0280 C   0  0  0  0  0  0  0  0  0  0  0  0
   37.4440   35.8450   16.7460 C   0  0  0  0  0  0  0  0  0  0  0  0
   38.6240   35.9740   16.0940 F   0  0  0  0  0  0  0  0  0  0  0  0
   33.6254   38.0149   19.3608 H   0  0  0  0  0  0  0  0  0  0  0  0
   33.3053   39.9736   20.7964 H   0  0  0  0  0  0  0  0  0  0  0  0
   32.5276   40.6117   25.3332 H   0  0  0  0  0  0  0  0  0  0  0  0
   33.1220   37.9865   26.4967 H   0  0  0  0  0  0  0  0  0  0  0  0
   30.2646   38.8697   26.1482 H   0  0  0  0  0  0  0  0  0  0  0  0
   31.0421   37.2479   25.9097 H   0  0  0  0  0  0  0  0  0  0  0  0
   29.8794   38.4631   28.3466 H   0  0  0  0  0  0  0  0  0  0  0  0
   30.1803   36.7310   27.9160 H   0  0  0  0  0  0  0  0  0  0  0  0
   31.1950   39.6345   29.2776 H   0  0  0  0  0  0  0  0  0  0  0  0
   32.8417   39.1019   29.8068 H   0  0  0  0  0  0  0  0  0  0  0  0
   33.7961   39.7223   27.8579 H   0  0  0  0  0  0  0  0  0  0  0  0
   32.2675   40.6589   27.5813 H   0  0  0  0  0  0  0  0  0  0  0  0
   33.6898   33.9686   23.5189 H   0  0  0  0  0  0  0  0  0  0  0  0
   33.4053   35.4234   24.5430 H   0  0  0  0  0  0  0  0  0  0  0  0
   31.3865   34.4046   24.8963 H   0  0  0  0  0  0  0  0  0  0  0  0
   30.9751   35.2226   23.3509 H   0  0  0  0  0  0  0  0  0  0  0  0
   31.4541   33.4914   23.3509 H   0  0  0  0  0  0  0  0  0  0  0  0
   38.3109   36.2176   18.6964 H   0  0  0  0  0  0  0  0  0  0  0  0
   36.1383   35.9841   19.8983 H   0  0  0  0  0  0  0  0  0  0  0  0
   36.3167   35.4699   14.9338 H   0  0  0  0  0  0  0  0  0  0  0  0
  1  2  2  0
  1 11  1  0
  1 21  1  0
  2  3  1  0
  2 30  1  0
  3  4  2  0
  3  9  1  0
  4  5  1  0
  4 31  1  0
  5  6  2  0
  6  7  1  0
  6  8  1  0
  7 13  1  0
  7 32  1  0
  8  9  2  0
  9 10  1  0
 10 19  1  0
 10 11  1  0
 11 12  2  0
 13 14  1  0
 13 18  1  0
 13 33  1  0
 14 15  1  0
 14 34  1  0
 14 35  1  0
 15 16  1  0
 15 36  1  0
 15 37  1  0
 16 17  1  0
 17 18  1  0
 17 38  1  0
 17 39  1  0
 18 40  1  0
 18 41  1  0
 19 20  1  0
 19 42  1  0
 19 43  1  0
 20 44  1  0
 20 45  1  0
 20 46  1  0
 21 24  1  0
 22 23  2  0
 22 28  1  0
 22 47  1  0
 23 24  1  0
 23 48  1  0
 24 25  2  0
 25 26  1  0
 25 27  1  0
 27 28  2  0
 27 49  1  0
 28 29  1  0
M  END
>  <s_m_entry_id>  (1) 
1354

>  <MODEL>  (1) 
1

>  <REMARK>  (1) 
 VINA RESULT:    -8.679      0.000      0.000
 INTER + INTRA:         -11.245
 INTER:                 -10.708
 INTRA:                  -0.537
 UNBOUND:                -0.537
  Name = /scratch/kmzp800/tmpn5ssn6xj/tmpcp_unikm.pdb
  5 active torsions:
  status: ('A' for Active; 'I' for Inactive)
    1  A    between atoms: C3_3  and  O1_4
    2  A    between atoms: O1_4  and  C4_5
    3  A    between atoms: N2_11  and  C9_12
    4  A    between atoms: N4_20  and  C15_21
    5  A    between atoms: C15_21  and  C16_22
                            x       y       z     vdW  Elec       q    Type
                         _______ _______ _______ _____ _____    ______ ____

>  <TORSDO>  (1) 
F 4

>  <grid_id>  (1) 
p38-prepared

>  <grid_path>  (1) 
/projects/mai/users/kmzp800_harry/pmx_colab/docking_jobs/p38/vina_docking/input_files/p38_vina.pdbqt

>  <grid_filename>  (1) 
p38_vina.pdbqt

>  <docking_score>  (1) 
-8.679

>  <compound_name>  (1) 
lig_p38a_2l

>  <index_string>  (1) 
0:0:0

>  <s_m_Source_Path>  (1) 
/projects/mai/users/kmzp800_harry/pmx_colab/docking_jobs/p38

>  <s_m_Source_File>  (1) 
p38_confs_vina_naive.sdf

>  <i_m_Source_File_Index>  (1) 
1

$$$$
