20:0:0
     RDKit          3D

 60 63  0  0  1  0  0  0  0  0999 V2000
   40.9190    9.5230   17.0420 C   0  0  0  0  0  0  0  0  0  0  0  0
   42.1180    8.9360   17.4550 C   0  0  0  0  0  0  0  0  0  0  0  0
   43.3330    9.5930   17.2420 C   0  0  0  0  0  0  0  0  0  0  0  0
   43.3520   10.8420   16.6140 C   0  0  0  0  0  0  0  0  0  0  0  0
   42.1570   11.4410   16.1920 C   0  0  0  0  0  0  0  0  0  0  0  0
   40.9440   10.7740   16.4100 C   0  0  0  0  0  0  0  0  0  0  0  0
   42.1740   12.7580   15.5310 C   0  0  0  0  0  0  0  0  0  0  0  0
   43.3500   13.9470   15.7440 S   0  0  0  0  0  0  0  0  0  0  0  0
   42.6690   15.0670   14.6930 C   0  0  0  0  0  0  0  0  0  0  0  0
   41.5050   14.5170   14.1600 C   0  0  0  0  0  0  0  0  0  0  0  0
   41.2230   13.2210   14.6270 C   0  0  0  0  0  0  0  0  0  0  0  0
   43.2300   16.3950   14.4040 C   0  0  0  0  0  0  0  0  0  0  0  0
   43.2780   17.2800   15.2980 O   0  0  0  0  0  0  0  0  0  0  0  0
   43.7140   16.6820   13.1340 O   0  0  0  0  0  0  0  0  0  0  0  0
   40.7000   15.2000   13.2440 O   0  0  0  0  0  0  0  0  0  0  0  0
   39.9830   16.3750   13.5940 C   0  0  0  0  0  0  0  0  0  0  0  0
   40.1020   17.3730   12.4980 C   0  0  0  0  0  0  0  0  0  0  0  0
   39.3520   18.3830   12.4850 O   0  0  0  0  0  0  0  0  0  0  0  0
   41.0680   17.2120   11.5140 O   0  0  0  0  0  0  0  0  0  0  0  0
   39.6880    8.8310   17.2710 N   0  0  0  0  0  0  0  0  0  0  0  0
   37.3750    6.8230   17.2930 N   0  0  0  0  0  0  0  0  0  0  0  0
   36.8410    7.5760   18.4250 C   0  0  0  0  0  0  0  0  0  0  0  0
   37.8170    8.6810   18.8410 C   0  0  0  0  0  0  0  0  0  0  0  0
   39.2820    8.3120   18.5720 C   0  0  0  0  0  0  0  0  0  0  0  0
   39.4970    6.7950   18.6360 C   0  0  0  0  0  0  0  0  0  0  0  0
   38.5260    6.0210   17.7260 C   0  0  0  0  0  0  0  0  0  0  0  0
   36.1350    5.7440   16.7290 S   0  0  0  0  0  0  0  0  0  0  0  0
   36.5500    4.3330   17.0320 O   0  0  0  0  0  0  0  0  0  0  0  0
   34.8480    6.0310   17.4530 O   0  0  0  0  0  0  0  0  0  0  0  0
   35.8670    5.8800   14.9630 C   0  0  0  0  0  0  0  0  0  0  0  0
   39.5480    6.5050   12.8510 C   0  0  0  0  0  0  0  0  0  0  0  0
   38.7830    7.6030   13.2570 C   0  0  0  0  0  0  0  0  0  0  0  0
   37.5800    7.4020   13.9420 C   0  0  0  0  0  0  0  0  0  0  0  0
   37.1420    6.1030   14.2230 C   0  0  0  0  0  0  0  0  0  0  0  0
   37.9070    5.0050   13.8110 C   0  0  0  0  0  0  0  0  0  0  0  0
   39.1100    5.2070   13.1280 C   0  0  0  0  0  0  0  0  0  0  0  0
   42.1055    7.9535   17.9494 H   0  0  0  0  0  0  0  0  0  0  0  0
   44.2746    9.1273   17.5685 H   0  0  0  0  0  0  0  0  0  0  0  0
   44.3099   11.3574   16.4502 H   0  0  0  0  0  0  0  0  0  0  0  0
   40.0017   11.2369   16.0818 H   0  0  0  0  0  0  0  0  0  0  0  0
   40.3459   12.6367   14.3119 H   0  0  0  0  0  0  0  0  0  0  0  0
   38.9230   16.1253   13.7490 H   0  0  0  0  0  0  0  0  0  0  0  0
   40.3996   16.7965   14.5207 H   0  0  0  0  0  0  0  0  0  0  0  0
   39.0529    8.6915   16.4722 H   0  0  0  0  0  0  0  0  0  0  0  0
   35.8811    8.0299   18.1377 H   0  0  0  0  0  0  0  0  0  0  0  0
   36.6968    6.8902   19.2729 H   0  0  0  0  0  0  0  0  0  0  0  0
   37.5753    9.5941   18.2773 H   0  0  0  0  0  0  0  0  0  0  0  0
   37.7065    8.8299   19.9253 H   0  0  0  0  0  0  0  0  0  0  0  0
   39.9045    8.7682   19.3558 H   0  0  0  0  0  0  0  0  0  0  0  0
   40.5275    6.5716   18.3226 H   0  0  0  0  0  0  0  0  0  0  0  0
   39.3098    6.4752   19.6717 H   0  0  0  0  0  0  0  0  0  0  0  0
   38.1539    5.1447   18.2770 H   0  0  0  0  0  0  0  0  0  0  0  0
   39.0834    5.7348   16.8219 H   0  0  0  0  0  0  0  0  0  0  0  0
   35.4035    4.9504   14.6010 H   0  0  0  0  0  0  0  0  0  0  0  0
   35.2124    6.7455   14.7831 H   0  0  0  0  0  0  0  0  0  0  0  0
   40.4947    6.6629   12.3135 H   0  0  0  0  0  0  0  0  0  0  0  0
   39.1272    8.6245   13.0378 H   0  0  0  0  0  0  0  0  0  0  0  0
   36.9778    8.2658   14.2600 H   0  0  0  0  0  0  0  0  0  0  0  0
   37.5612    3.9829   14.0249 H   0  0  0  0  0  0  0  0  0  0  0  0
   39.7122    4.3438   12.8084 H   0  0  0  0  0  0  0  0  0  0  0  0
  1 20  1  0
  1  2  2  0
  1  6  1  0
  2  3  1  0
  2 37  1  0
  3  4  2  0
  3 38  1  0
  4  5  1  0
  4 39  1  0
  5  6  2  0
  5  7  1  0
  6 40  1  0
  7  8  1  0
  7 11  2  0
  8  9  1  0
  9 10  2  0
  9 12  1  0
 10 11  1  0
 10 15  1  0
 11 41  1  0
 12 13  1  0
 12 14  2  0
 15 16  1  0
 16 17  1  0
 16 42  1  0
 16 43  1  0
 17 18  1  0
 17 19  2  0
 20 24  1  0
 20 44  1  0
 21 26  1  0
 21 22  1  0
 21 27  1  0
 22 23  1  0
 22 45  1  0
 22 46  1  0
 23 24  1  0
 23 47  1  0
 23 48  1  0
 24 25  1  0
 24 49  1  0
 25 26  1  0
 25 50  1  0
 25 51  1  0
 26 52  1  0
 26 53  1  0
 27 28  2  0
 27 29  2  0
 27 30  1  0
 30 34  1  0
 30 54  1  0
 30 55  1  0
 31 36  2  0
 31 32  1  0
 31 56  1  0
 32 33  2  0
 32 57  1  0
 33 34  1  0
 33 58  1  0
 34 35  2  0
 35 36  1  0
 35 59  1  0
 36 60  1  0
M  CHG  2  13  -1  18  -1
M  END
>  <s_m_entry_id>  (1) 
1366

>  <MODEL>  (1) 
1

>  <REMARK>  (1) 
 VINA RESULT:    -8.450      0.000      0.000
 INTER + INTRA:         -14.711
 INTER:                 -13.389
 INTRA:                  -1.321
 UNBOUND:                -1.321
  Name = /scratch/kmzp800/tmp5i5ruh49/tmpooq5kddz.pdb
  10 active torsions:
  status: ('A' for Active; 'I' for Inactive)
    1  A    between atoms: C4_4  and  C5_5
    2  A    between atoms: C5_5  and  S1_6
    3  A    between atoms: S1_6  and  N1_9
    4  A    between atoms: C8_12  and  N2_13
    5  A    between atoms: N2_13  and  C9_14
    6  A    between atoms: C13_18  and  C14_19
    7  A    between atoms: C15_21  and  C16_22
    8  A    between atoms: C17_25  and  O5_26
    9  A    between atoms: O5_26  and  C18_27
   10  A    between atoms: C18_27  and  C19_28
                            x       y       z     vdW  Elec       q    Type
                         _______ _______ _______ _____ _____    ______ ____

>  <TORSDO>  (1) 
F 10

>  <grid_id>  (1) 
ptp1b-prepared

>  <grid_path>  (1) 
ptp1b_vina.pdbqt

>  <grid_filename>  (1) 
ptp1b_vina.pdbqt

>  <docking_score>  (1) 
-8.45

>  <compound_name>  (1) 
lig_23484

>  <index_string>  (1) 
20:0:0

>  <s_m_Source_Path>  (1) 
/projects/mai/users/kmzp800_harry/pmx_colab/docking_jobs/ptp1b/vina_prep

>  <s_m_Source_File>  (1) 
ptp1b_vina_naive_confs.sdf

>  <i_m_Source_File_Index>  (1) 
21

$$$$
