3:0:0
     RDKit          3D

 57 60  0  0  1  0  0  0  0  0999 V2000
   41.8911   17.4863   12.0958 O   0  0  0  0  0  0  0  0  0  0  0  0
   41.0070   17.3858   12.9807 C   0  0  0  0  0  0  0  0  0  0  0  0
   39.8625   17.8871   12.8938 O   0  0  0  0  0  0  0  0  0  0  0  0
   41.3393   16.6250   14.2741 C   0  0  0  0  0  0  0  0  0  0  0  0
   42.5434   15.8705   14.1446 O   0  0  0  0  0  0  0  0  0  0  0  0
   42.6655   14.8372   15.0133 C   0  0  0  0  0  0  0  0  0  0  0  0
   42.0569   13.5630   14.8344 C   0  0  0  0  0  0  0  0  0  0  0  0
   40.9831   13.2812   13.2941 Br  0  0  0  0  0  0  0  0  0  0  0  0
   42.3236   12.6216   15.8078 C   0  0  0  0  0  0  0  0  0  0  0  0
   43.3712   13.3455   17.0125 S   0  0  0  0  0  0  0  0  0  0  0  0
   43.3842   14.8872   16.1797 C   0  0  0  0  0  0  0  0  0  0  0  0
   44.1097   15.9934   16.8197 C   0  0  0  0  0  0  0  0  0  0  0  0
   44.5838   16.8924   16.0935 O   0  0  0  0  0  0  0  0  0  0  0  0
   44.1988   16.0373   18.0654 O   0  0  0  0  0  0  0  0  0  0  0  0
   41.8895   11.2199   15.9838 C   0  0  0  0  0  0  0  0  0  0  0  0
   42.6624   10.2917   16.7200 C   0  0  0  0  0  0  0  0  0  0  0  0
   42.2297    8.9601   16.8933 C   0  0  0  0  0  0  0  0  0  0  0  0
   41.0297    8.5080   16.3054 C   0  0  0  0  0  0  0  0  0  0  0  0
   40.2370    9.4132   15.5719 C   0  0  0  0  0  0  0  0  0  0  0  0
   40.6745   10.7500   15.4376 C   0  0  0  0  0  0  0  0  0  0  0  0
   39.0048    9.0862   14.9831 N   0  0  0  0  0  0  0  0  0  0  0  0
   38.4545    7.7552   14.7540 C   0  0  0  0  0  0  0  0  0  0  0  0
   36.9323    7.9058   14.5684 C   0  0  0  0  0  0  0  0  0  0  0  0
   36.2380    6.6009   14.1535 C   0  0  0  0  0  0  0  0  0  0  0  0
   36.8522    6.0524   12.9339 N   0  0  0  0  0  0  0  0  0  0  0  0
   38.3084    5.8228   13.0562 C   0  0  0  0  0  0  0  0  0  0  0  0
   39.0471    7.1122   13.4842 C   0  0  0  0  0  0  0  0  0  0  0  0
   35.8807    5.0499   11.8907 S   0  0  0  0  0  0  0  0  0  0  0  0
   34.5840    5.7211   11.6940 O   0  0  0  0  0  0  0  0  0  0  0  0
   36.6894    4.6862   10.7186 O   0  0  0  0  0  0  0  0  0  0  0  0
   35.6243    3.5745   12.8677 C   0  0  0  0  0  0  0  0  0  0  0  0
   34.3791    3.3503   13.4886 C   0  0  0  0  0  0  0  0  0  0  0  0
   34.1809    2.1773   14.2429 C   0  0  0  0  0  0  0  0  0  0  0  0
   35.2228    1.2365   14.3714 C   0  0  0  0  0  0  0  0  0  0  0  0
   36.4645    1.4636   13.7439 C   0  0  0  0  0  0  0  0  0  0  0  0
   36.6679    2.6354   12.9889 C   0  0  0  0  0  0  0  0  0  0  0  0
   41.4517   17.3422   15.0881 H   0  0  0  0  0  0  0  0  0  0  0  0
   40.4922   15.9847   14.5254 H   0  0  0  0  0  0  0  0  0  0  0  0
   43.6004   10.5896   17.1649 H   0  0  0  0  0  0  0  0  0  0  0  0
   42.8372    8.2820   17.4713 H   0  0  0  0  0  0  0  0  0  0  0  0
   40.7249    7.4805   16.4382 H   0  0  0  0  0  0  0  0  0  0  0  0
   40.0456   11.4372   14.9034 H   0  0  0  0  0  0  0  0  0  0  0  0
   38.5418    9.8468   14.4941 H   0  0  0  0  0  0  0  0  0  0  0  0
   38.6462    7.1163   15.6165 H   0  0  0  0  0  0  0  0  0  0  0  0
   36.4837    8.2784   15.4896 H   0  0  0  0  0  0  0  0  0  0  0  0
   36.7291    8.6600   13.8058 H   0  0  0  0  0  0  0  0  0  0  0  0
   36.3014    5.8605   14.9517 H   0  0  0  0  0  0  0  0  0  0  0  0
   35.1783    6.7911   13.9814 H   0  0  0  0  0  0  0  0  0  0  0  0
   38.4853    5.0265   13.7798 H   0  0  0  0  0  0  0  0  0  0  0  0
   38.7102    5.4779   12.1032 H   0  0  0  0  0  0  0  0  0  0  0  0
   39.0043    7.8304   12.6656 H   0  0  0  0  0  0  0  0  0  0  0  0
   40.1053    6.8941   13.6368 H   0  0  0  0  0  0  0  0  0  0  0  0
   33.5774    4.0655   13.3837 H   0  0  0  0  0  0  0  0  0  0  0  0
   33.2289    1.9956   14.7181 H   0  0  0  0  0  0  0  0  0  0  0  0
   35.0675    0.3343   14.9458 H   0  0  0  0  0  0  0  0  0  0  0  0
   37.2585    0.7356   13.8357 H   0  0  0  0  0  0  0  0  0  0  0  0
   37.6152    2.8084   12.4992 H   0  0  0  0  0  0  0  0  0  0  0  0
  1  2  2  0
  2  3  1  0
  2  4  1  0
  4  5  1  0
  4 37  1  0
  4 38  1  0
  5  6  1  0
  6 11  2  0
  6  7  1  0
  7  8  1  0
  7  9  2  0
  9 10  1  0
  9 15  1  0
 10 11  1  0
 11 12  1  0
 12 13  2  0
 12 14  1  0
 15 20  1  0
 15 16  2  0
 16 17  1  0
 16 39  1  0
 17 18  2  0
 17 40  1  0
 18 19  1  0
 18 41  1  0
 19 20  2  0
 19 21  1  0
 20 42  1  0
 21 22  1  0
 21 43  1  0
 22 27  1  0
 22 23  1  0
 22 44  1  0
 23 24  1  0
 23 45  1  0
 23 46  1  0
 24 25  1  0
 24 47  1  0
 24 48  1  0
 25 26  1  0
 25 28  1  0
 26 27  1  0
 26 49  1  0
 26 50  1  0
 27 51  1  0
 27 52  1  0
 28 29  2  0
 28 30  2  0
 28 31  1  0
 31 36  1  0
 31 32  2  0
 32 33  1  0
 32 53  1  0
 33 34  2  0
 33 54  1  0
 34 35  1  0
 34 55  1  0
 35 36  2  0
 35 56  1  0
 36 57  1  0
M  CHG  2   3  -1  14  -1
M  END
>  <s_m_entry_id>  (1) 
456

>  <i_f3d_flags>  (1) 
0

>  <r_epik_Ionization_Penalty>  (1) 
  0.0004

>  <r_epik_State_Penalty>  (1) 
  0.0002

>  <i_epik_Tot_Q>  (1) 
-2

>  <s_m_job_name>  (1) 
glide-dock_SP_ptp1b_no_cons

>  <r_i_docking_score>  (1) 
-9.14231218001289

>  <r_i_glide_gscore>  (1) 
-9.14251218001289

>  <r_i_glide_emodel>  (1) 
-134.272806293586

>  <index_string>  (1) 
3:0:0

$$$$
