11:0:0
     RDKit          3D

 37 39  0  0  1  0  0  0  0  0999 V2000
  -14.4444  -14.7997  -27.6848 C   0  0  0  0  0  0  0  0  0  0  0  0
  -15.0288  -15.6095  -26.6925 C   0  0  0  0  0  0  0  0  0  0  0  0
  -14.5170  -13.4002  -27.5795 C   0  0  0  0  0  0  0  0  0  0  0  0
  -15.7355  -15.0182  -25.6162 C   0  0  0  0  0  0  0  0  0  0  0  0
  -14.8481  -16.9974  -26.7625 N   0  0  0  0  0  0  0  0  0  0  0  0
  -15.2097  -12.8105  -26.5093 C   0  0  0  0  0  0  0  0  0  0  0  0
  -15.8248  -13.6151  -25.5418 C   0  0  0  0  0  0  0  0  0  0  0  0
  -16.3606  -15.9391  -24.6130 C   0  0  0  0  0  0  0  0  0  0  0  0
  -16.1172  -17.2394  -24.8110 N   0  0  0  0  0  0  0  0  0  0  0  0
  -17.0502  -15.5715  -23.6731 O   0  0  0  0  0  0  0  0  0  0  0  0
  -15.3613  -17.7739  -25.8550 C   0  0  0  0  0  0  0  0  0  0  0  0
  -15.1985  -19.2525  -25.9333 C   0  0  0  0  0  0  0  0  0  0  0  0
  -14.7805  -19.8369  -27.1386 C   0  0  0  0  0  0  0  0  0  0  0  0
  -14.5483  -21.2087  -27.2241 C   0  0  0  0  0  0  0  0  0  0  0  0
  -14.7532  -22.0465  -26.1162 C   0  0  0  0  0  0  0  0  0  0  0  0
  -15.2177  -21.4666  -24.9121 C   0  0  0  0  0  0  0  0  0  0  0  0
  -15.4375  -20.0830  -24.8191 C   0  0  0  0  0  0  0  0  0  0  0  0
  -14.4593  -23.5376  -26.1841 C   0  0  0  0  0  0  0  0  0  0  0  0
  -14.1785  -23.9714  -27.5115 O   0  0  0  0  0  0  0  0  0  0  0  0
  -13.1795  -23.8275  -25.3785 C   0  0  0  0  0  0  0  0  0  0  0  0
  -15.6901  -24.3280  -25.7004 C   0  0  0  0  0  0  0  0  0  0  0  0
  -16.4482  -13.0152  -24.5206 F   0  0  0  0  0  0  0  0  0  0  0  0
  -13.8969  -15.2575  -28.5000 H   0  0  0  0  0  0  0  0  0  0  0  0
  -14.0492  -12.7789  -28.3344 H   0  0  0  0  0  0  0  0  0  0  0  0
  -15.2679  -11.7344  -26.4567 H   0  0  0  0  0  0  0  0  0  0  0  0
  -16.5524  -17.8832  -24.1681 H   0  0  0  0  0  0  0  0  0  0  0  0
  -14.5898  -19.2367  -28.0169 H   0  0  0  0  0  0  0  0  0  0  0  0
  -14.1850  -21.5727  -28.1641 H   0  0  0  0  0  0  0  0  0  0  0  0
  -15.3835  -22.0777  -24.0398 H   0  0  0  0  0  0  0  0  0  0  0  0
  -15.7796  -19.6724  -23.8837 H   0  0  0  0  0  0  0  0  0  0  0  0
  -13.9681  -24.8903  -27.4902 H   0  0  0  0  0  0  0  0  0  0  0  0
  -12.3507  -23.2241  -25.7479 H   0  0  0  0  0  0  0  0  0  0  0  0
  -12.8426  -24.8606  -25.4309 H   0  0  0  0  0  0  0  0  0  0  0  0
  -13.3145  -23.5721  -24.3293 H   0  0  0  0  0  0  0  0  0  0  0  0
  -16.5640  -24.0354  -26.2872 H   0  0  0  0  0  0  0  0  0  0  0  0
  -15.5651  -25.3944  -25.8900 H   0  0  0  0  0  0  0  0  0  0  0  0
  -15.9091  -24.1492  -24.6500 H   0  0  0  0  0  0  0  0  0  0  0  0
  1  2  2  0
  1  3  1  0
  1 23  1  0
  2  4  1  0
  2  5  1  0
  3  6  2  0
  3 24  1  0
  4  7  2  0
  4  8  1  0
  5 11  2  0
  6  7  1  0
  6 25  1  0
  7 22  1  0
  8  9  1  0
  8 10  2  0
  9 11  1  0
  9 26  1  0
 11 12  1  0
 12 13  2  0
 12 17  1  0
 13 14  1  0
 13 27  1  0
 14 15  2  0
 14 28  1  0
 15 16  1  0
 15 18  1  0
 16 17  2  0
 16 29  1  0
 17 30  1  0
 18 19  1  0
 18 20  1  0
 18 21  1  0
 19 31  1  0
 20 32  1  0
 20 33  1  0
 20 34  1  0
 21 35  1  0
 21 36  1  0
 21 37  1  0
M  END
>  <s_m_entry_id>  (1) 
508

>  <Name>  (1) 
5b

>  <IC50[nM]>  (1) 
21

>  <s_m_Source_Path>  (1) 
/projects/mai/users/kmzp800_harry/pmx_colab/docking_jobs/tnks2

>  <s_m_Source_File>  (1) 
tnks2_lig.sdf

>  <i_m_Source_File_Index>  (1) 
5

>  <s_m_job_name>  (1) 
glide-dock_SP_tnks_mcs_fallabck

>  <r_i_docking_score>  (1) 
-10.0423312105963

>  <r_i_glide_gscore>  (1) 
-10.0423312105963

>  <r_i_glide_emodel>  (1) 
-51.4428660627513

>  <index_string>  (1) 
11:0:0

$$$$
