19:0:0
     RDKit          3D

 60 63  0  0  1  0  0  0  0  0999 V2000
   40.9460    9.5670   17.0720 C   0  0  0  0  0  0  0  0  0  0  0  0
   42.1460    8.9710   17.4720 C   0  0  0  0  0  0  0  0  0  0  0  0
   43.3640    9.6170   17.2400 C   0  0  0  0  0  0  0  0  0  0  0  0
   43.3850   10.8620   16.6060 C   0  0  0  0  0  0  0  0  0  0  0  0
   42.1900   11.4700   16.1970 C   0  0  0  0  0  0  0  0  0  0  0  0
   40.9740   10.8150   16.4340 C   0  0  0  0  0  0  0  0  0  0  0  0
   42.2100   12.7840   15.5290 C   0  0  0  0  0  0  0  0  0  0  0  0
   43.3770   13.9800   15.7530 S   0  0  0  0  0  0  0  0  0  0  0  0
   42.7050   15.0910   14.6870 C   0  0  0  0  0  0  0  0  0  0  0  0
   41.5510   14.5320   14.1400 C   0  0  0  0  0  0  0  0  0  0  0  0
   41.2690   13.2380   14.6100 C   0  0  0  0  0  0  0  0  0  0  0  0
   43.2640   16.4200   14.3990 C   0  0  0  0  0  0  0  0  0  0  0  0
   43.3380   17.2950   15.3020 O   0  0  0  0  0  0  0  0  0  0  0  0
   43.7170   16.7210   13.1200 O   0  0  0  0  0  0  0  0  0  0  0  0
   40.7560   15.2070   13.2100 O   0  0  0  0  0  0  0  0  0  0  0  0
   40.0010   16.3600   13.5520 C   0  0  0  0  0  0  0  0  0  0  0  0
   40.1340   17.3780   12.4770 C   0  0  0  0  0  0  0  0  0  0  0  0
   39.4250   18.4170   12.5030 O   0  0  0  0  0  0  0  0  0  0  0  0
   41.0700   17.2020   11.4670 O   0  0  0  0  0  0  0  0  0  0  0  0
   39.7120    8.8870   17.3200 N   0  0  0  0  0  0  0  0  0  0  0  0
   37.4210    6.8550   17.3110 N   0  0  0  0  0  0  0  0  0  0  0  0
   36.9270    7.5310   18.5100 C   0  0  0  0  0  0  0  0  0  0  0  0
   37.9100    8.6180   18.9530 C   0  0  0  0  0  0  0  0  0  0  0  0
   39.3650    8.2840   18.6020 C   0  0  0  0  0  0  0  0  0  0  0  0
   39.5970    6.7690   18.5630 C   0  0  0  0  0  0  0  0  0  0  0  0
   38.5960    6.0410   17.6470 C   0  0  0  0  0  0  0  0  0  0  0  0
   36.1680    5.7980   16.7330 S   0  0  0  0  0  0  0  0  0  0  0  0
   36.5950    4.3760   16.9580 O   0  0  0  0  0  0  0  0  0  0  0  0
   34.9010    6.0470   17.5040 O   0  0  0  0  0  0  0  0  0  0  0  0
   35.8510    6.0150   14.9830 C   0  0  0  0  0  0  0  0  0  0  0  0
   39.4860    6.5900   12.7800 C   0  0  0  0  0  0  0  0  0  0  0  0
   38.7690    7.6980   13.2410 C   0  0  0  0  0  0  0  0  0  0  0  0
   37.5820    7.5130   13.9560 C   0  0  0  0  0  0  0  0  0  0  0  0
   37.1100    6.2200   14.2110 C   0  0  0  0  0  0  0  0  0  0  0  0
   37.8270    5.1130   13.7440 C   0  0  0  0  0  0  0  0  0  0  0  0
   39.0150    5.2970   13.0300 C   0  0  0  0  0  0  0  0  0  0  0  0
   42.1317    7.9907   17.9708 H   0  0  0  0  0  0  0  0  0  0  0  0
   44.3059    9.1451   17.5566 H   0  0  0  0  0  0  0  0  0  0  0  0
   44.3451   11.3681   16.4268 H   0  0  0  0  0  0  0  0  0  0  0  0
   40.0316   11.2850   16.1161 H   0  0  0  0  0  0  0  0  0  0  0  0
   40.3988   12.6480   14.2865 H   0  0  0  0  0  0  0  0  0  0  0  0
   38.9423   16.0841   13.6664 H   0  0  0  0  0  0  0  0  0  0  0  0
   40.3766   16.7760   14.4985 H   0  0  0  0  0  0  0  0  0  0  0  0
   39.0307    8.8195   16.5505 H   0  0  0  0  0  0  0  0  0  0  0  0
   35.9522    7.9912   18.2910 H   0  0  0  0  0  0  0  0  0  0  0  0
   36.8232    6.7927   19.3187 H   0  0  0  0  0  0  0  0  0  0  0  0
   37.6369    9.5615   18.4578 H   0  0  0  0  0  0  0  0  0  0  0  0
   37.8439    8.6972   20.0481 H   0  0  0  0  0  0  0  0  0  0  0  0
   40.0150    8.6986   19.3866 H   0  0  0  0  0  0  0  0  0  0  0  0
   40.6156    6.5778   18.1944 H   0  0  0  0  0  0  0  0  0  0  0  0
   39.4564    6.3836   19.5836 H   0  0  0  0  0  0  0  0  0  0  0  0
   38.2546    5.1285   18.1577 H   0  0  0  0  0  0  0  0  0  0  0  0
   39.1183    5.8169   16.7052 H   0  0  0  0  0  0  0  0  0  0  0  0
   35.3411    5.1187   14.6002 H   0  0  0  0  0  0  0  0  0  0  0  0
   35.2251    6.9110   14.8585 H   0  0  0  0  0  0  0  0  0  0  0  0
   40.4216    6.7352   12.2200 H   0  0  0  0  0  0  0  0  0  0  0  0
   39.1385    8.7147   13.0413 H   0  0  0  0  0  0  0  0  0  0  0  0
   37.0180    8.3849   14.3188 H   0  0  0  0  0  0  0  0  0  0  0  0
   37.4554    4.0962   13.9389 H   0  0  0  0  0  0  0  0  0  0  0  0
   39.5787    4.4257   12.6652 H   0  0  0  0  0  0  0  0  0  0  0  0
  1 20  1  0
  1  2  2  0
  1  6  1  0
  2  3  1  0
  2 37  1  0
  3  4  2  0
  3 38  1  0
  4  5  1  0
  4 39  1  0
  5  6  2  0
  5  7  1  0
  6 40  1  0
  7  8  1  0
  7 11  2  0
  8  9  1  0
  9 10  2  0
  9 12  1  0
 10 11  1  0
 10 15  1  0
 11 41  1  0
 12 13  1  0
 12 14  2  0
 15 16  1  0
 16 17  1  0
 16 42  1  0
 16 43  1  0
 17 18  1  0
 17 19  2  0
 20 24  1  0
 20 44  1  0
 21 26  1  0
 21 22  1  0
 21 27  1  0
 22 23  1  0
 22 45  1  0
 22 46  1  0
 23 24  1  0
 23 47  1  0
 23 48  1  0
 24 25  1  0
 24 49  1  0
 25 26  1  0
 25 50  1  0
 25 51  1  0
 26 52  1  0
 26 53  1  0
 27 28  2  0
 27 29  2  0
 27 30  1  0
 30 34  1  0
 30 54  1  0
 30 55  1  0
 31 36  2  0
 31 32  1  0
 31 56  1  0
 32 33  2  0
 32 57  1  0
 33 34  1  0
 33 58  1  0
 34 35  2  0
 35 36  1  0
 35 59  1  0
 36 60  1  0
M  CHG  2  13  -1  18  -1
M  END
>  <s_m_entry_id>  (1) 
1237

>  <MODEL>  (1) 
1

>  <REMARK>  (1) 
 VINA RESULT:    -8.168      0.000      0.000
 INTER + INTRA:         -14.724
 INTER:                 -13.415
 INTRA:                  -1.309
 UNBOUND:                -1.781
  Name = /scratch/kmzp800/tmpgvn3jsh3/tmpwor4pgs6.pdb
  10 active torsions:
  status: ('A' for Active; 'I' for Inactive)
    1  A    between atoms: C4_4  and  C5_5
    2  A    between atoms: C5_5  and  S1_6
    3  A    between atoms: S1_6  and  N1_9
    4  A    between atoms: C8_12  and  N2_13
    5  A    between atoms: N2_13  and  C9_14
    6  A    between atoms: C13_18  and  C14_19
    7  A    between atoms: C15_21  and  C16_22
    8  A    between atoms: C17_25  and  O5_26
    9  A    between atoms: O5_26  and  C18_27
   10  A    between atoms: C18_27  and  C19_28
                            x       y       z     vdW  Elec       q    Type
                         _______ _______ _______ _____ _____    ______ ____

>  <TORSDO>  (1) 
F 10

>  <grid_id>  (1) 
ptp1b-prepared

>  <grid_path>  (1) 
ptp1b_vina.pdbqt

>  <grid_filename>  (1) 
ptp1b_vina.pdbqt

>  <docking_score>  (1) 
-8.168

>  <compound_name>  (1) 
lig_23484

>  <index_string>  (1) 
19:0:0

>  <s_m_Source_Path>  (1) 
/projects/mai/users/kmzp800_harry/pmx_colab/docking_jobs/ptp1b

>  <s_m_Source_File>  (1) 
ptp1b_confs_vina_mcs.sdf

>  <i_m_Source_File_Index>  (1) 
21

$$$$
