16:0:0
     RDKit          3D

 48 50  0  0  1  0  0  0  0  0999 V2000
   41.3839   17.4863   11.6440 O   0  0  0  0  0  0  0  0  0  0  0  0
   40.5348   17.4060   12.5615 C   0  0  0  0  0  0  0  0  0  0  0  0
   39.3817   17.8861   12.5047 O   0  0  0  0  0  0  0  0  0  0  0  0
   40.9247   16.6744   13.8447 C   0  0  0  0  0  0  0  0  0  0  0  0
   42.0988   15.9071   13.6275 O   0  0  0  0  0  0  0  0  0  0  0  0
   42.3764   15.0259   14.6100 C   0  0  0  0  0  0  0  0  0  0  0  0
   41.8847   13.6978   14.6518 C   0  0  0  0  0  0  0  0  0  0  0  0
   40.7195   13.0879   13.2940 Br  0  0  0  0  0  0  0  0  0  0  0  0
   42.3242   12.9311   15.7015 C   0  0  0  0  0  0  0  0  0  0  0  0
   43.3838   13.8863   16.7093 S   0  0  0  0  0  0  0  0  0  0  0  0
   43.1615   15.3018   15.6953 C   0  0  0  0  0  0  0  0  0  0  0  0
   43.7934   16.5562   16.1197 C   0  0  0  0  0  0  0  0  0  0  0  0
   43.9115   17.4865   15.2940 O   0  0  0  0  0  0  0  0  0  0  0  0
   44.1851   16.6858   17.2980 O   0  0  0  0  0  0  0  0  0  0  0  0
   42.0392   11.5382   16.0526 C   0  0  0  0  0  0  0  0  0  0  0  0
   43.0297   10.7081   16.6229 C   0  0  0  0  0  0  0  0  0  0  0  0
   42.7471    9.3612   16.9261 C   0  0  0  0  0  0  0  0  0  0  0  0
   41.4797    8.8175   16.6397 C   0  0  0  0  0  0  0  0  0  0  0  0
   40.4781    9.6314   16.0678 C   0  0  0  0  0  0  0  0  0  0  0  0
   40.7641   10.9841   15.8075 C   0  0  0  0  0  0  0  0  0  0  0  0
   39.1990    9.1630   15.7359 N   0  0  0  0  0  0  0  0  0  0  0  0
   38.9784    7.7389   15.5309 C   0  0  0  0  0  0  0  0  0  0  0  0
   37.5618    7.4601   14.9926 C   0  0  0  0  0  0  0  0  0  0  0  0
   37.3389    8.0673   13.5904 C   0  0  0  0  0  0  0  0  0  0  0  0
   35.9171    7.7896   13.0804 C   0  0  0  0  0  0  0  0  0  0  0  0
   35.6224    6.2835   13.0477 C   0  0  0  0  0  0  0  0  0  0  0  0
   35.8526    5.6523   14.4301 C   0  0  0  0  0  0  0  0  0  0  0  0
   37.2685    5.9467   14.9554 C   0  0  0  0  0  0  0  0  0  0  0  0
   41.0934   17.4057   14.6370 H   0  0  0  0  0  0  0  0  0  0  0  0
   40.0933   16.0377   14.1539 H   0  0  0  0  0  0  0  0  0  0  0  0
   44.0186   11.0949   16.8233 H   0  0  0  0  0  0  0  0  0  0  0  0
   43.5125    8.7353   17.3621 H   0  0  0  0  0  0  0  0  0  0  0  0
   41.2941    7.7778   16.8646 H   0  0  0  0  0  0  0  0  0  0  0  0
   39.9816   11.6050   15.4023 H   0  0  0  0  0  0  0  0  0  0  0  0
   38.6542    9.7754   15.1402 H   0  0  0  0  0  0  0  0  0  0  0  0
   39.7294    7.3442   14.8446 H   0  0  0  0  0  0  0  0  0  0  0  0
   39.1099    7.2245   16.4829 H   0  0  0  0  0  0  0  0  0  0  0  0
   36.8476    7.9165   15.6805 H   0  0  0  0  0  0  0  0  0  0  0  0
   37.5051    9.1433   13.6069 H   0  0  0  0  0  0  0  0  0  0  0  0
   38.0702    7.6564   12.8941 H   0  0  0  0  0  0  0  0  0  0  0  0
   35.1992    8.2858   13.7292 H   0  0  0  0  0  0  0  0  0  0  0  0
   35.7812    8.2285   12.0943 H   0  0  0  0  0  0  0  0  0  0  0  0
   34.5939    6.1107   12.7294 H   0  0  0  0  0  0  0  0  0  0  0  0
   36.2648    5.7992   12.3113 H   0  0  0  0  0  0  0  0  0  0  0  0
   35.1168    6.0419   15.1346 H   0  0  0  0  0  0  0  0  0  0  0  0
   35.6926    4.5747   14.3801 H   0  0  0  0  0  0  0  0  0  0  0  0
   38.0020    5.4432   14.3243 H   0  0  0  0  0  0  0  0  0  0  0  0
   37.3816    5.5208   15.9536 H   0  0  0  0  0  0  0  0  0  0  0  0
  1  2  2  0
  2  3  1  0
  2  4  1  0
  4  5  1  0
  4 29  1  0
  4 30  1  0
  5  6  1  0
  6 11  2  0
  6  7  1  0
  7  8  1  0
  7  9  2  0
  9 10  1  0
  9 15  1  0
 10 11  1  0
 11 12  1  0
 12 13  2  0
 12 14  1  0
 15 20  1  0
 15 16  2  0
 16 17  1  0
 16 31  1  0
 17 18  2  0
 17 32  1  0
 18 19  1  0
 18 33  1  0
 19 20  2  0
 19 21  1  0
 20 34  1  0
 21 22  1  0
 21 35  1  0
 22 23  1  0
 22 36  1  0
 22 37  1  0
 23 28  1  0
 23 24  1  0
 23 38  1  0
 24 25  1  0
 24 39  1  0
 24 40  1  0
 25 26  1  0
 25 41  1  0
 25 42  1  0
 26 27  1  0
 26 43  1  0
 26 44  1  0
 27 28  1  0
 27 45  1  0
 27 46  1  0
 28 47  1  0
 28 48  1  0
M  CHG  2   3  -1  14  -1
M  END
>  <s_m_entry_id>  (1) 
469

>  <i_f3d_flags>  (1) 
0

>  <r_epik_Ionization_Penalty>  (1) 
  0.0033

>  <r_epik_State_Penalty>  (1) 
  0.0023

>  <i_epik_Tot_Q>  (1) 
-2

>  <s_m_job_name>  (1) 
glide-dock_SP_ptp1b_no_cons

>  <r_i_docking_score>  (1) 
-8.03073391422198

>  <r_i_glide_gscore>  (1) 
-8.03303391422198

>  <r_i_glide_emodel>  (1) 
-107.554868066447

>  <index_string>  (1) 
16:0:0

$$$$
