9:0:0
     RDKit          3D

 52 55  0  0  1  0  0  0  0  0999 V2000
   -4.5307   -3.1973   15.5387 C   0  0  0  0  0  0  0  0  0  0  0  0
   -3.8840   -2.2703   14.6799 O   0  0  0  0  0  0  0  0  0  0  0  0
   -2.5266   -2.0866   14.8244 C   0  0  0  0  0  0  0  0  0  0  0  0
   -1.7296   -2.8459   15.7086 C   0  0  0  0  0  0  0  0  0  0  0  0
   -0.3561   -2.5999   15.8089 C   0  0  0  0  0  0  0  0  0  0  0  0
    0.2521   -1.5758   15.0659 C   0  0  0  0  0  0  0  0  0  0  0  0
    1.6221   -1.3579   15.2872 N   0  0  0  0  0  0  0  0  0  0  0  0
    2.5316   -0.4379   14.7279 C   0  0  0  0  0  0  0  0  0  0  0  0
    2.1971    0.3682   13.7484 N   0  0  0  0  0  0  0  0  0  0  0  0
    3.1245    1.2515   13.2274 C   0  0  0  0  0  0  0  0  0  0  0  0
    4.4243    1.2876   13.6817 C   0  0  0  0  0  0  0  0  0  0  0  0
    4.7595    0.4877   14.7232 N   0  0  0  0  0  0  0  0  0  0  0  0
    5.9051    0.3789   15.4894 C   0  0  0  0  0  0  0  0  0  0  0  0
    5.6026   -0.5062   16.4960 C   0  0  0  0  0  0  0  0  0  0  0  0
    4.3619   -1.0633   16.3201 N   0  0  0  0  0  0  0  0  0  0  0  0
    3.8327   -0.4190   15.2899 C   0  0  0  0  0  0  0  0  0  0  0  0
    2.6543    2.1674   12.1575 C   0  0  0  0  0  0  0  0  0  0  0  0
    3.5650    2.6716   11.1925 C   0  0  0  0  0  0  0  0  0  0  0  0
    3.1570    3.5005   10.1365 C   0  0  0  0  0  0  0  0  0  0  0  0
    1.8008    3.8627   10.0340 C   0  0  0  0  0  0  0  0  0  0  0  0
    1.3212    4.6482    9.0057 O   0  0  0  0  0  0  0  0  0  0  0  0
    2.0789    5.7849    8.6170 C   0  0  0  0  0  0  0  0  0  0  0  0
    0.8800    3.3958   11.0151 C   0  0  0  0  0  0  0  0  0  0  0  0
    1.2978    2.5466   12.0612 C   0  0  0  0  0  0  0  0  0  0  0  0
   -0.5645    3.7965   10.9598 C   0  0  0  0  0  0  0  0  0  0  0  0
   -1.4682    2.9891   11.1118 O   0  0  0  0  0  0  0  0  0  0  0  0
   -0.8084    5.0898   10.7700 N   0  0  0  0  0  0  0  0  0  0  0  0
   -0.5400   -0.8211   14.1751 C   0  0  0  0  0  0  0  0  0  0  0  0
   -1.9243   -1.0746   14.0448 C   0  0  0  0  0  0  0  0  0  0  0  0
   -2.7430   -0.3533   13.2044 O   0  0  0  0  0  0  0  0  0  0  0  0
   -2.1965    0.6755   12.4061 C   0  0  0  0  0  0  0  0  0  0  0  0
   -5.5918   -3.2252   15.2954 H   0  0  0  0  0  0  0  0  0  0  0  0
   -4.1382   -4.2069   15.4125 H   0  0  0  0  0  0  0  0  0  0  0  0
   -4.4372   -2.8996   16.5841 H   0  0  0  0  0  0  0  0  0  0  0  0
   -2.1456   -3.6216   16.3267 H   0  0  0  0  0  0  0  0  0  0  0  0
    0.2327   -3.2038   16.4834 H   0  0  0  0  0  0  0  0  0  0  0  0
    2.0615   -1.9773   15.9586 H   0  0  0  0  0  0  0  0  0  0  0  0
    5.1972    1.9495   13.3080 H   0  0  0  0  0  0  0  0  0  0  0  0
    6.7713    0.9810   15.2475 H   0  0  0  0  0  0  0  0  0  0  0  0
    6.1609   -0.7847   17.3540 H   0  0  0  0  0  0  0  0  0  0  0  0
    4.6038    2.3936   11.2319 H   0  0  0  0  0  0  0  0  0  0  0  0
    3.8993    3.8204    9.4211 H   0  0  0  0  0  0  0  0  0  0  0  0
    1.5356    6.3245    7.8392 H   0  0  0  0  0  0  0  0  0  0  0  0
    2.2152    6.4755    9.4507 H   0  0  0  0  0  0  0  0  0  0  0  0
    3.0505    5.5126    8.2106 H   0  0  0  0  0  0  0  0  0  0  0  0
    0.5932    2.1831   12.8005 H   0  0  0  0  0  0  0  0  0  0  0  0
   -1.7613    5.4135   10.7328 H   0  0  0  0  0  0  0  0  0  0  0  0
   -0.0339    5.7246   10.6360 H   0  0  0  0  0  0  0  0  0  0  0  0
   -0.0848   -0.0366   13.5998 H   0  0  0  0  0  0  0  0  0  0  0  0
   -3.0051    1.1552   11.8493 H   0  0  0  0  0  0  0  0  0  0  0  0
   -1.7175    1.4457   13.0139 H   0  0  0  0  0  0  0  0  0  0  0  0
   -1.4802    0.2971   11.6753 H   0  0  0  0  0  0  0  0  0  0  0  0
  1  2  1  0
  1 32  1  0
  1 33  1  0
  1 34  1  0
  2  3  1  0
  3  4  2  0
  3 29  1  0
  4  5  1  0
  4 35  1  0
  5  6  2  0
  5 36  1  0
  6  7  1  0
  6 28  1  0
  7  8  1  0
  7 37  1  0
  8  9  2  0
  8 16  1  0
  9 10  1  0
 10 11  2  0
 10 17  1  0
 11 12  1  0
 11 38  1  0
 12 13  1  0
 12 16  1  0
 13 14  2  0
 13 39  1  0
 14 15  1  0
 14 40  1  0
 15 16  2  0
 17 18  2  0
 17 24  1  0
 18 19  1  0
 18 41  1  0
 19 20  2  0
 19 42  1  0
 20 21  1  0
 20 23  1  0
 21 22  1  0
 22 43  1  0
 22 44  1  0
 22 45  1  0
 23 24  2  0
 23 25  1  0
 24 46  1  0
 25 26  2  0
 25 27  1  0
 27 47  1  0
 27 48  1  0
 28 29  2  0
 28 49  1  0
 29 30  1  0
 30 31  1  0
 31 50  1  0
 31 51  1  0
 31 52  1  0
M  END
>  <s_m_entry_id>  (1) 
1107

>  <IC50[nM]>  (1) 
37.4

>  <s_m_Source_Path>  (1) 
/projects/mai/users/kmzp800_harry/pmx_colab/docking_jobs/syk

>  <s_m_Source_File>  (1) 
tnks2_lig.sdf

>  <i_m_Source_File_Index>  (1) 
11

>  <s_m_job_name>  (1) 
glide-dock_SP_syk_mcs

>  <r_i_docking_score>  (1) 
-6.75156442957013

>  <r_i_glide_gscore>  (1) 
-6.75156442957013

>  <r_i_glide_emodel>  (1) 
-49.690426604259

>  <index_string>  (1) 
9:0:0

$$$$
