11:0:0
     RDKit          3D

 52 55  0  0  1  0  0  0  0  0999 V2000
   -4.5837   -3.0234   15.8389 C   0  0  0  0  0  0  0  0  0  0  0  0
   -3.9623   -2.1434   14.9117 O   0  0  0  0  0  0  0  0  0  0  0  0
   -2.5897   -2.0126   14.9654 C   0  0  0  0  0  0  0  0  0  0  0  0
   -1.7562   -2.8181   15.7779 C   0  0  0  0  0  0  0  0  0  0  0  0
   -0.3695   -2.5962   15.8185 C   0  0  0  0  0  0  0  0  0  0  0  0
    0.2249   -1.5671   15.0644 C   0  0  0  0  0  0  0  0  0  0  0  0
    1.6072   -1.3733   15.2491 N   0  0  0  0  0  0  0  0  0  0  0  0
    2.5274   -0.4449   14.7282 C   0  0  0  0  0  0  0  0  0  0  0  0
    2.1957    0.3594   13.7557 N   0  0  0  0  0  0  0  0  0  0  0  0
    3.1079    1.2699   13.2617 C   0  0  0  0  0  0  0  0  0  0  0  0
    4.4196    1.2956   13.6886 C   0  0  0  0  0  0  0  0  0  0  0  0
    4.7614    0.4750   14.7180 N   0  0  0  0  0  0  0  0  0  0  0  0
    5.9054    0.3779   15.4864 C   0  0  0  0  0  0  0  0  0  0  0  0
    5.5986   -0.4925   16.5027 C   0  0  0  0  0  0  0  0  0  0  0  0
    4.3604   -1.0694   16.3225 N   0  0  0  0  0  0  0  0  0  0  0  0
    3.8301   -0.4213   15.2923 C   0  0  0  0  0  0  0  0  0  0  0  0
    2.5492    2.2721   12.3117 C   0  0  0  0  0  0  0  0  0  0  0  0
    1.1514    2.4831   12.2194 C   0  0  0  0  0  0  0  0  0  0  0  0
    0.5966    3.3815   11.2915 C   0  0  0  0  0  0  0  0  0  0  0  0
    1.4281    4.1253   10.4296 C   0  0  0  0  0  0  0  0  0  0  0  0
    0.8122    5.0388    9.4036 C   0  0  0  0  0  0  0  0  0  0  0  0
    1.2746    6.1449    9.1392 O   0  0  0  0  0  0  0  0  0  0  0  0
   -0.2468    4.5451    8.7568 N   0  0  0  0  0  0  0  0  0  0  0  0
    2.8323    4.0131   10.5834 C   0  0  0  0  0  0  0  0  0  0  0  0
    3.6828    4.8090    9.8629 O   0  0  0  0  0  0  0  0  0  0  0  0
    4.1548    5.9169   10.6195 C   0  0  0  0  0  0  0  0  0  0  0  0
    3.3759    3.0775   11.4921 C   0  0  0  0  0  0  0  0  0  0  0  0
   -0.6036   -0.7951   14.2174 C   0  0  0  0  0  0  0  0  0  0  0  0
   -2.0058   -1.0076   14.1633 C   0  0  0  0  0  0  0  0  0  0  0  0
   -2.8627   -0.2594   13.3799 O   0  0  0  0  0  0  0  0  0  0  0  0
   -2.3015    0.6675   12.4615 C   0  0  0  0  0  0  0  0  0  0  0  0
   -5.6663   -2.9596   15.7258 H   0  0  0  0  0  0  0  0  0  0  0  0
   -4.2953   -4.0605   15.6599 H   0  0  0  0  0  0  0  0  0  0  0  0
   -4.3441   -2.7536   16.8693 H   0  0  0  0  0  0  0  0  0  0  0  0
   -2.1554   -3.6029   16.4030 H   0  0  0  0  0  0  0  0  0  0  0  0
    0.2366   -3.2083   16.4725 H   0  0  0  0  0  0  0  0  0  0  0  0
    2.0210   -1.9610   15.9620 H   0  0  0  0  0  0  0  0  0  0  0  0
    5.1692    2.0045   13.3568 H   0  0  0  0  0  0  0  0  0  0  0  0
    6.7604    1.0055   15.2845 H   0  0  0  0  0  0  0  0  0  0  0  0
    6.1228   -0.7373   17.4014 H   0  0  0  0  0  0  0  0  0  0  0  0
    0.4736    1.9410   12.8580 H   0  0  0  0  0  0  0  0  0  0  0  0
   -0.4776    3.4867   11.2447 H   0  0  0  0  0  0  0  0  0  0  0  0
   -0.6995    5.1024    8.0471 H   0  0  0  0  0  0  0  0  0  0  0  0
   -0.5772    3.6176    8.9706 H   0  0  0  0  0  0  0  0  0  0  0  0
    4.4302    6.7265    9.9461 H   0  0  0  0  0  0  0  0  0  0  0  0
    3.3970    6.3129   11.2987 H   0  0  0  0  0  0  0  0  0  0  0  0
    5.0320    5.6421   11.2059 H   0  0  0  0  0  0  0  0  0  0  0  0
    4.4498    2.9894   11.5464 H   0  0  0  0  0  0  0  0  0  0  0  0
   -0.1737   -0.0131   13.6235 H   0  0  0  0  0  0  0  0  0  0  0  0
   -3.0929    1.0783   11.8349 H   0  0  0  0  0  0  0  0  0  0  0  0
   -1.8304    1.5000   12.9841 H   0  0  0  0  0  0  0  0  0  0  0  0
   -1.5751    0.1942   11.7992 H   0  0  0  0  0  0  0  0  0  0  0  0
  1  2  1  0
  1 32  1  0
  1 33  1  0
  1 34  1  0
  2  3  1  0
  3  4  2  0
  3 29  1  0
  4  5  1  0
  4 35  1  0
  5  6  2  0
  5 36  1  0
  6  7  1  0
  6 28  1  0
  7  8  1  0
  7 37  1  0
  8  9  2  0
  8 16  1  0
  9 10  1  0
 10 11  2  0
 10 17  1  0
 11 12  1  0
 11 38  1  0
 12 13  1  0
 12 16  1  0
 13 14  2  0
 13 39  1  0
 14 15  1  0
 14 40  1  0
 15 16  2  0
 17 18  2  0
 17 27  1  0
 18 19  1  0
 18 41  1  0
 19 20  2  0
 19 42  1  0
 20 21  1  0
 20 24  1  0
 21 22  2  0
 21 23  1  0
 23 43  1  0
 23 44  1  0
 24 25  1  0
 24 27  2  0
 25 26  1  0
 26 45  1  0
 26 46  1  0
 26 47  1  0
 27 48  1  0
 28 29  2  0
 28 49  1  0
 29 30  1  0
 30 31  1  0
 31 50  1  0
 31 51  1  0
 31 52  1  0
M  END
>  <s_m_entry_id>  (1) 
999

>  <IC50[nM]>  (1) 
23.8

>  <s_m_Source_Path>  (1) 
/projects/mai/users/kmzp800_harry/pmx_colab/docking_jobs/syk

>  <s_m_Source_File>  (1) 
tnks2_lig.sdf

>  <i_m_Source_File_Index>  (1) 
12

>  <s_m_job_name>  (1) 
glide-dock_SP_tnks2_core_const

>  <r_i_docking_score>  (1) 
-7.13944539713089

>  <r_i_glide_gscore>  (1) 
-7.13944539713089

>  <r_i_glide_emodel>  (1) 
-45.8699389937341

>  <index_string>  (1) 
11:0:0

$$$$
