1:0:0
     RDKit          3D

 41 43  0  0  1  0  0  0  0  0999 V2000
   41.3850   17.4860   11.6618 O   0  0  0  0  0  0  0  0  0  0  0  0
   40.5387   17.4022   12.5813 C   0  0  0  0  0  0  0  0  0  0  0  0
   39.3824   17.8759   12.5252 O   0  0  0  0  0  0  0  0  0  0  0  0
   40.9369   16.6788   13.8668 C   0  0  0  0  0  0  0  0  0  0  0  0
   42.1118   15.9119   13.6500 O   0  0  0  0  0  0  0  0  0  0  0  0
   42.3910   15.0326   14.6340 C   0  0  0  0  0  0  0  0  0  0  0  0
   41.9098   13.7019   14.6705 C   0  0  0  0  0  0  0  0  0  0  0  0
   40.7592   13.1072   13.2940 Br  0  0  0  0  0  0  0  0  0  0  0  0
   42.3651   12.9281   15.7111 C   0  0  0  0  0  0  0  0  0  0  0  0
   43.3841   13.9012   16.7418 S   0  0  0  0  0  0  0  0  0  0  0  0
   43.1829   15.3071   15.7134 C   0  0  0  0  0  0  0  0  0  0  0  0
   43.8417   16.5526   16.1157 C   0  0  0  0  0  0  0  0  0  0  0  0
   43.9276   17.4869   15.2938 O   0  0  0  0  0  0  0  0  0  0  0  0
   44.2943   16.6772   17.2729 O   0  0  0  0  0  0  0  0  0  0  0  0
   42.1529   11.5138   16.0334 C   0  0  0  0  0  0  0  0  0  0  0  0
   43.1511   10.7554   16.6861 C   0  0  0  0  0  0  0  0  0  0  0  0
   42.9600    9.3846   16.9419 C   0  0  0  0  0  0  0  0  0  0  0  0
   41.7849    8.7382   16.5123 C   0  0  0  0  0  0  0  0  0  0  0  0
   40.7769    9.4768   15.8549 C   0  0  0  0  0  0  0  0  0  0  0  0
   40.9601   10.8578   15.6646 C   0  0  0  0  0  0  0  0  0  0  0  0
   39.6109    8.9346   15.3686 O   0  0  0  0  0  0  0  0  0  0  0  0
   39.5764    7.5358   15.1188 C   0  0  0  0  0  0  0  0  0  0  0  0
   38.3416    7.1214   14.3353 C   0  0  0  0  0  0  0  0  0  0  0  0
   38.1883    5.7758   13.9434 C   0  0  0  0  0  0  0  0  0  0  0  0
   37.0421    5.3687   13.2323 C   0  0  0  0  0  0  0  0  0  0  0  0
   36.0406    6.3039   12.9103 C   0  0  0  0  0  0  0  0  0  0  0  0
   36.1918    7.6492   13.2939 C   0  0  0  0  0  0  0  0  0  0  0  0
   37.3397    8.0584   13.9995 C   0  0  0  0  0  0  0  0  0  0  0  0
   41.1094   17.4145   14.6538 H   0  0  0  0  0  0  0  0  0  0  0  0
   40.1092   16.0426   14.1848 H   0  0  0  0  0  0  0  0  0  0  0  0
   44.0824   11.2149   16.9848 H   0  0  0  0  0  0  0  0  0  0  0  0
   43.7309    8.8192   17.4437 H   0  0  0  0  0  0  0  0  0  0  0  0
   41.6725    7.6807   16.6924 H   0  0  0  0  0  0  0  0  0  0  0  0
   40.1647   11.4049   15.1906 H   0  0  0  0  0  0  0  0  0  0  0  0
   40.4601    7.2316   14.5541 H   0  0  0  0  0  0  0  0  0  0  0  0
   39.5780    6.9910   16.0635 H   0  0  0  0  0  0  0  0  0  0  0  0
   38.9485    5.0500   14.1935 H   0  0  0  0  0  0  0  0  0  0  0  0
   36.9300    4.3347   12.9420 H   0  0  0  0  0  0  0  0  0  0  0  0
   35.1576    5.9890   12.3767 H   0  0  0  0  0  0  0  0  0  0  0  0
   35.4282    8.3713   13.0486 H   0  0  0  0  0  0  0  0  0  0  0  0
   37.4390    9.0954   14.2817 H   0  0  0  0  0  0  0  0  0  0  0  0
  1  2  2  0
  2  3  1  0
  2  4  1  0
  4  5  1  0
  4 29  1  0
  4 30  1  0
  5  6  1  0
  6 11  2  0
  6  7  1  0
  7  8  1  0
  7  9  2  0
  9 10  1  0
  9 15  1  0
 10 11  1  0
 11 12  1  0
 12 13  2  0
 12 14  1  0
 15 20  1  0
 15 16  2  0
 16 17  1  0
 16 31  1  0
 17 18  2  0
 17 32  1  0
 18 19  1  0
 18 33  1  0
 19 20  2  0
 19 21  1  0
 20 34  1  0
 21 22  1  0
 22 23  1  0
 22 35  1  0
 22 36  1  0
 23 28  1  0
 23 24  2  0
 24 25  1  0
 24 37  1  0
 25 26  2  0
 25 38  1  0
 26 27  1  0
 26 39  1  0
 27 28  2  0
 27 40  1  0
 28 41  1  0
M  CHG  2   3  -1  14  -1
M  END
>  <s_m_entry_id>  (1) 
454

>  <i_f3d_flags>  (1) 
0

>  <r_epik_Ionization_Penalty>  (1) 
  0.0001

>  <r_epik_State_Penalty>  (1) 
  0.0000

>  <i_epik_Tot_Q>  (1) 
-2

>  <s_m_job_name>  (1) 
glide-dock_SP_ptp1b_no_cons

>  <r_lp_tautomer_probability>  (1) 
1

>  <r_i_docking_score>  (1) 
-7.78748982424087

>  <r_i_glide_gscore>  (1) 
-7.78748982424087

>  <r_i_glide_emodel>  (1) 
-104.751586018887

>  <index_string>  (1) 
1:0:0

$$$$
