32:0:0
     RDKit          3D

 43 47  0  0  1  0  0  0  0  0999 V2000
   -3.9619   -1.7329   14.8433 C   0  0  0  0  0  0  0  0  0  0  0  0
   -3.3921   -0.7963   13.9378 O   0  0  0  0  0  0  0  0  0  0  0  0
   -2.0169   -0.7190   13.8732 C   0  0  0  0  0  0  0  0  0  0  0  0
   -1.1401   -1.5169   14.6477 C   0  0  0  0  0  0  0  0  0  0  0  0
    0.2542   -1.3503   14.5464 C   0  0  0  0  0  0  0  0  0  0  0  0
    0.8057   -0.3918   13.6707 C   0  0  0  0  0  0  0  0  0  0  0  0
    2.2050   -0.2913   13.6246 N   0  0  0  0  0  0  0  0  0  0  0  0
    3.0166    0.8409   13.4549 C   0  0  0  0  0  0  0  0  0  0  0  0
    2.6436    1.8210   12.6814 N   0  0  0  0  0  0  0  0  0  0  0  0
    3.4580    2.9232   12.5249 C   0  0  0  0  0  0  0  0  0  0  0  0
    4.6505    3.0538   13.1992 C   0  0  0  0  0  0  0  0  0  0  0  0
    5.0339    2.0254   14.0088 N   0  0  0  0  0  0  0  0  0  0  0  0
    6.1438    1.8395   14.8114 C   0  0  0  0  0  0  0  0  0  0  0  0
    6.0292    0.6014   15.3861 C   0  0  0  0  0  0  0  0  0  0  0  0
    4.8306    0.0046   15.0147 N   0  0  0  0  0  0  0  0  0  0  0  0
    4.2492    0.8603   14.1669 C   0  0  0  0  0  0  0  0  0  0  0  0
    2.9849    3.9195   11.5297 C   0  0  0  0  0  0  0  0  0  0  0  0
    2.4613    3.4610   10.2985 C   0  0  0  0  0  0  0  0  0  0  0  0
    1.9655    4.3362    9.3163 C   0  0  0  0  0  0  0  0  0  0  0  0
    1.9910    5.7288    9.5225 C   0  0  0  0  0  0  0  0  0  0  0  0
    1.5893    6.8933    8.7949 C   0  0  0  0  0  0  0  0  0  0  0  0
    1.8659    7.9912    9.4513 N   0  0  0  0  0  0  0  0  0  0  0  0
    2.4300    7.5832   10.6175 N   0  0  0  0  0  0  0  0  0  0  0  0
    2.5430    6.2029   10.7439 C   0  0  0  0  0  0  0  0  0  0  0  0
    3.0435    5.3214   11.7334 C   0  0  0  0  0  0  0  0  0  0  0  0
   -0.0676    0.3884   12.8810 C   0  0  0  0  0  0  0  0  0  0  0  0
   -1.4626    0.2264   12.9876 C   0  0  0  0  0  0  0  0  0  0  0  0
   -5.0491   -1.6725   14.7935 H   0  0  0  0  0  0  0  0  0  0  0  0
   -3.6692   -1.5216   15.8726 H   0  0  0  0  0  0  0  0  0  0  0  0
   -3.6762   -2.7553   14.5899 H   0  0  0  0  0  0  0  0  0  0  0  0
   -1.5073   -2.2607   15.3374 H   0  0  0  0  0  0  0  0  0  0  0  0
    0.9013   -1.9694   15.1532 H   0  0  0  0  0  0  0  0  0  0  0  0
    2.6727   -0.9707   14.2103 H   0  0  0  0  0  0  0  0  0  0  0  0
    5.3139    3.9075   13.1075 H   0  0  0  0  0  0  0  0  0  0  0  0
    6.9114    2.5967   14.8632 H   0  0  0  0  0  0  0  0  0  0  0  0
    6.7037    0.0875   16.0563 H   0  0  0  0  0  0  0  0  0  0  0  0
    2.4359    2.4034   10.1030 H   0  0  0  0  0  0  0  0  0  0  0  0
    1.5620    3.9392    8.3967 H   0  0  0  0  0  0  0  0  0  0  0  0
    1.1275    6.9560    7.8210 H   0  0  0  0  0  0  0  0  0  0  0  0
    2.8230    8.2800   11.2611 H   0  0  0  0  0  0  0  0  0  0  0  0
    3.4400    5.7201   12.6553 H   0  0  0  0  0  0  0  0  0  0  0  0
    0.3108    1.1129   12.1783 H   0  0  0  0  0  0  0  0  0  0  0  0
   -2.1122    0.8354   12.3768 H   0  0  0  0  0  0  0  0  0  0  0  0
  1  2  1  0
  1 28  1  0
  1 29  1  0
  1 30  1  0
  2  3  1  0
  3  4  2  0
  3 27  1  0
  4  5  1  0
  4 31  1  0
  5  6  2  0
  5 32  1  0
  6  7  1  0
  6 26  1  0
  7  8  1  0
  7 33  1  0
  8  9  2  0
  8 16  1  0
  9 10  1  0
 10 11  2  0
 10 17  1  0
 11 12  1  0
 11 34  1  0
 12 13  1  0
 12 16  1  0
 13 14  2  0
 13 35  1  0
 14 15  1  0
 14 36  1  0
 15 16  2  0
 17 18  2  0
 17 25  1  0
 18 19  1  0
 18 37  1  0
 19 20  2  0
 19 38  1  0
 20 21  1  0
 20 24  1  0
 21 22  2  0
 21 39  1  0
 22 23  1  0
 23 24  1  0
 23 40  1  0
 24 25  2  0
 25 41  1  0
 26 27  2  0
 26 42  1  0
 27 43  1  0
M  END
>  <s_m_entry_id>  (1) 
712

>  <IC50[nM]>  (1) 
7

>  <s_m_Source_Path>  (1) 
/projects/mai/users/kmzp800_harry/pmx_colab/docking_jobs/syk

>  <s_m_Source_File>  (1) 
tnks2_lig.sdf

>  <i_m_Source_File_Index>  (1) 
33

>  <s_m_job_name>  (1) 
glide-dock_SP_tnks2_no_const

>  <r_i_docking_score>  (1) 
-6.6385053878209

>  <r_i_glide_gscore>  (1) 
-6.6385053878209

>  <r_i_glide_emodel>  (1) 
-58.7767896856805

>  <index_string>  (1) 
32:0:0

$$$$
