28:0:0
     RDKit          3D

 62 66  0  0  1  0  0  0  0  0999 V2000
   -1.1848    6.5070   11.0542 C   0  0  0  0  0  0  0  0  0  0  0  0
   -0.7998    5.3238   10.3659 O   0  0  0  0  0  0  0  0  0  0  0  0
   -0.9316    4.1552   11.0775 C   0  0  0  0  0  0  0  0  0  0  0  0
   -1.8011    3.1771   10.5678 C   0  0  0  0  0  0  0  0  0  0  0  0
   -1.9619    1.9458   11.2267 C   0  0  0  0  0  0  0  0  0  0  0  0
   -1.2359    1.6614   12.3970 C   0  0  0  0  0  0  0  0  0  0  0  0
   -1.4325    0.4077   13.0052 N   0  0  0  0  0  0  0  0  0  0  0  0
   -0.5387   -0.3663   13.7632 C   0  0  0  0  0  0  0  0  0  0  0  0
    0.7171   -0.0380   13.7820 N   0  0  0  0  0  0  0  0  0  0  0  0
    1.6226   -0.7429   14.5430 C   0  0  0  0  0  0  0  0  0  0  0  0
    1.2308   -1.8187   15.3034 C   0  0  0  0  0  0  0  0  0  0  0  0
   -0.0765   -2.1918   15.2570 N   0  0  0  0  0  0  0  0  0  0  0  0
   -0.7627   -3.2173   15.8792 C   0  0  0  0  0  0  0  0  0  0  0  0
   -2.0659   -3.1185   15.4794 C   0  0  0  0  0  0  0  0  0  0  0  0
   -2.2379   -2.0432   14.6139 N   0  0  0  0  0  0  0  0  0  0  0  0
   -1.0297   -1.4907   14.4817 C   0  0  0  0  0  0  0  0  0  0  0  0
    3.0114   -0.2037   14.5237 C   0  0  0  0  0  0  0  0  0  0  0  0
    4.0207   -0.6420   15.4174 C   0  0  0  0  0  0  0  0  0  0  0  0
    5.2791    0.0036   15.4692 C   0  0  0  0  0  0  0  0  0  0  0  0
    5.5719    1.0801   14.6172 C   0  0  0  0  0  0  0  0  0  0  0  0
    4.5890    1.5375   13.7190 C   0  0  0  0  0  0  0  0  0  0  0  0
    3.3415    0.8789   13.6690 C   0  0  0  0  0  0  0  0  0  0  0  0
    4.8073    2.7992   12.9373 C   0  0  0  0  0  0  0  0  0  0  0  0
    5.6066    3.6409   13.3444 O   0  0  0  0  0  0  0  0  0  0  0  0
    4.1141    2.8708   11.7836 N   0  0  0  0  0  0  0  0  0  0  0  0
    3.7824    4.0221   11.0244 C   0  0  0  0  0  0  0  0  0  0  0  0
    2.6870    3.9324   10.1376 C   0  0  0  0  0  0  0  0  0  0  0  0
    2.2494    5.0643    9.4180 C   0  0  0  0  0  0  0  0  0  0  0  0
    2.8992    6.3067    9.5835 C   0  0  0  0  0  0  0  0  0  0  0  0
    4.0300    6.3680   10.4180 C   0  0  0  0  0  0  0  0  0  0  0  0
    4.4724    5.2495   11.1387 C   0  0  0  0  0  0  0  0  0  0  0  0
    2.4189    7.5313    8.8566 C   0  0  0  0  0  0  0  0  0  0  0  0
    1.7663    7.4426    7.8181 O   0  0  0  0  0  0  0  0  0  0  0  0
    2.6893    8.7155    9.4170 N   0  0  0  0  0  0  0  0  0  0  0  0
   -0.3717    2.6515   12.9212 C   0  0  0  0  0  0  0  0  0  0  0  0
   -0.1966    3.8964   12.2614 C   0  0  0  0  0  0  0  0  0  0  0  0
    0.6913    4.8619   12.6884 O   0  0  0  0  0  0  0  0  0  0  0  0
    1.2603    4.7429   13.9813 C   0  0  0  0  0  0  0  0  0  0  0  0
   -1.1569    7.3450   10.3570 H   0  0  0  0  0  0  0  0  0  0  0  0
   -2.2072    6.4240   11.4361 H   0  0  0  0  0  0  0  0  0  0  0  0
   -0.5233    6.7569   11.8873 H   0  0  0  0  0  0  0  0  0  0  0  0
   -2.3467    3.3759    9.6575 H   0  0  0  0  0  0  0  0  0  0  0  0
   -2.6290    1.2046   10.8085 H   0  0  0  0  0  0  0  0  0  0  0  0
   -2.2818   -0.0817   12.7693 H   0  0  0  0  0  0  0  0  0  0  0  0
    1.8793   -2.3959   15.9508 H   0  0  0  0  0  0  0  0  0  0  0  0
   -0.2533   -3.8969   16.5494 H   0  0  0  0  0  0  0  0  0  0  0  0
   -2.9062   -3.7384   15.7610 H   0  0  0  0  0  0  0  0  0  0  0  0
    3.8356   -1.4486   16.1076 H   0  0  0  0  0  0  0  0  0  0  0  0
    6.0260   -0.3307   16.1751 H   0  0  0  0  0  0  0  0  0  0  0  0
    6.5307    1.5765   14.6878 H   0  0  0  0  0  0  0  0  0  0  0  0
    2.5868    1.2747   13.0077 H   0  0  0  0  0  0  0  0  0  0  0  0
    3.5773    2.0465   11.5616 H   0  0  0  0  0  0  0  0  0  0  0  0
    2.1505    3.0017   10.0280 H   0  0  0  0  0  0  0  0  0  0  0  0
    1.3873    4.9823    8.7711 H   0  0  0  0  0  0  0  0  0  0  0  0
    4.5687    7.2862   10.5336 H   0  0  0  0  0  0  0  0  0  0  0  0
    5.3298    5.3755   11.7783 H   0  0  0  0  0  0  0  0  0  0  0  0
    2.3720    9.5550    8.9592 H   0  0  0  0  0  0  0  0  0  0  0  0
    3.1747    8.8007   10.3176 H   0  0  0  0  0  0  0  0  0  0  0  0
    0.1682    2.4444   13.8314 H   0  0  0  0  0  0  0  0  0  0  0  0
    1.8527    5.6326   14.2027 H   0  0  0  0  0  0  0  0  0  0  0  0
    0.4797    4.6717   14.7399 H   0  0  0  0  0  0  0  0  0  0  0  0
    1.9237    3.8790   14.0522 H   0  0  0  0  0  0  0  0  0  0  0  0
  1  2  1  0
  1 39  1  0
  1 40  1  0
  1 41  1  0
  2  3  1  0
  3  4  2  0
  3 36  1  0
  4  5  1  0
  4 42  1  0
  5  6  2  0
  5 43  1  0
  6  7  1  0
  6 35  1  0
  7  8  1  0
  7 44  1  0
  8  9  2  0
  8 16  1  0
  9 10  1  0
 10 11  2  0
 10 17  1  0
 11 12  1  0
 11 45  1  0
 12 13  1  0
 12 16  1  0
 13 14  2  0
 13 46  1  0
 14 15  1  0
 14 47  1  0
 15 16  2  0
 17 18  2  0
 17 22  1  0
 18 19  1  0
 18 48  1  0
 19 20  2  0
 19 49  1  0
 20 21  1  0
 20 50  1  0
 21 22  2  0
 21 23  1  0
 22 51  1  0
 23 24  2  0
 23 25  1  0
 25 26  1  0
 25 52  1  0
 26 27  2  0
 26 31  1  0
 27 28  1  0
 27 53  1  0
 28 29  2  0
 28 54  1  0
 29 30  1  0
 29 32  1  0
 30 31  2  0
 30 55  1  0
 31 56  1  0
 32 33  2  0
 32 34  1  0
 34 57  1  0
 34 58  1  0
 35 36  2  0
 35 59  1  0
 36 37  1  0
 37 38  1  0
 38 60  1  0
 38 61  1  0
 38 62  1  0
M  END
>  <s_m_entry_id>  (1) 
708

>  <IC50[nM]>  (1) 
4.3

>  <s_m_Source_Path>  (1) 
/projects/mai/users/kmzp800_harry/pmx_colab/docking_jobs/syk

>  <s_m_Source_File>  (1) 
tnks2_lig.sdf

>  <i_m_Source_File_Index>  (1) 
29

>  <s_m_job_name>  (1) 
glide-dock_SP_tnks2_no_const

>  <r_i_docking_score>  (1) 
-7.66193409857657

>  <r_i_glide_gscore>  (1) 
-7.66193409857657

>  <r_i_glide_emodel>  (1) 
-79.6318903017516

>  <index_string>  (1) 
28:0:0

$$$$
