26:0:0
     RDKit          3D

 37 39  0  0  1  0  0  0  0  0999 V2000
  -14.4435  -14.8983  -27.7410 C   0  0  0  0  0  0  0  0  0  0  0  0
  -15.0103  -15.6391  -26.6951 C   0  0  0  0  0  0  0  0  0  0  0  0
  -14.4765  -13.5046  -27.7028 C   0  0  0  0  0  0  0  0  0  0  0  0
  -15.7174  -15.0139  -25.6482 C   0  0  0  0  0  0  0  0  0  0  0  0
  -14.8480  -17.0252  -26.7400 N   0  0  0  0  0  0  0  0  0  0  0  0
  -15.1779  -12.8628  -26.6743 C   0  0  0  0  0  0  0  0  0  0  0  0
  -15.8109  -13.5998  -25.6404 C   0  0  0  0  0  0  0  0  0  0  0  0
  -15.2466  -11.5229  -26.7386 F   0  0  0  0  0  0  0  0  0  0  0  0
  -16.3458  -15.9268  -24.6225 C   0  0  0  0  0  0  0  0  0  0  0  0
  -16.1503  -17.2360  -24.8200 N   0  0  0  0  0  0  0  0  0  0  0  0
  -16.9945  -15.5590  -23.6573 O   0  0  0  0  0  0  0  0  0  0  0  0
  -15.3806  -17.7903  -25.8374 C   0  0  0  0  0  0  0  0  0  0  0  0
  -15.2018  -19.2637  -25.9233 C   0  0  0  0  0  0  0  0  0  0  0  0
  -15.4450  -20.1005  -24.8172 C   0  0  0  0  0  0  0  0  0  0  0  0
  -15.2149  -21.4872  -24.9112 C   0  0  0  0  0  0  0  0  0  0  0  0
  -14.7413  -22.0518  -26.1201 C   0  0  0  0  0  0  0  0  0  0  0  0
  -14.5234  -21.2080  -27.2204 C   0  0  0  0  0  0  0  0  0  0  0  0
  -14.7547  -19.8356  -27.1257 C   0  0  0  0  0  0  0  0  0  0  0  0
  -14.4152  -23.5384  -26.2197 C   0  0  0  0  0  0  0  0  0  0  0  0
  -14.0511  -23.9676  -27.5165 O   0  0  0  0  0  0  0  0  0  0  0  0
  -15.6548  -24.3726  -25.8901 C   0  0  0  0  0  0  0  0  0  0  0  0
  -13.1999  -23.8411  -25.3358 C   0  0  0  0  0  0  0  0  0  0  0  0
  -13.9304  -15.4010  -28.5490 H   0  0  0  0  0  0  0  0  0  0  0  0
  -14.0051  -12.9205  -28.4796 H   0  0  0  0  0  0  0  0  0  0  0  0
  -16.3546  -13.0879  -24.8588 H   0  0  0  0  0  0  0  0  0  0  0  0
  -16.6028  -17.8640  -24.1704 H   0  0  0  0  0  0  0  0  0  0  0  0
  -15.7904  -19.6961  -23.8773 H   0  0  0  0  0  0  0  0  0  0  0  0
  -15.3783  -22.1136  -24.0454 H   0  0  0  0  0  0  0  0  0  0  0  0
  -14.1342  -21.5729  -28.1535 H   0  0  0  0  0  0  0  0  0  0  0  0
  -14.5464  -19.2265  -27.9942 H   0  0  0  0  0  0  0  0  0  0  0  0
  -13.8391  -24.8876  -27.4807 H   0  0  0  0  0  0  0  0  0  0  0  0
  -16.0121  -24.1784  -24.8771 H   0  0  0  0  0  0  0  0  0  0  0  0
  -15.4705  -25.4423  -25.9452 H   0  0  0  0  0  0  0  0  0  0  0  0
  -16.4725  -24.1488  -26.5769 H   0  0  0  0  0  0  0  0  0  0  0  0
  -13.4256  -23.7062  -24.2770 H   0  0  0  0  0  0  0  0  0  0  0  0
  -12.8428  -24.8577  -25.4849 H   0  0  0  0  0  0  0  0  0  0  0  0
  -12.3675  -23.1804  -25.5771 H   0  0  0  0  0  0  0  0  0  0  0  0
  1  2  2  0
  1  3  1  0
  1 23  1  0
  2  4  1  0
  2  5  1  0
  3  6  2  0
  3 24  1  0
  4  7  2  0
  4  9  1  0
  5 12  2  0
  6  7  1  0
  6  8  1  0
  7 25  1  0
  9 10  1  0
  9 11  2  0
 10 12  1  0
 10 26  1  0
 12 13  1  0
 13 14  2  0
 13 18  1  0
 14 15  1  0
 14 27  1  0
 15 16  2  0
 15 28  1  0
 16 17  1  0
 16 19  1  0
 17 18  2  0
 17 29  1  0
 18 30  1  0
 19 20  1  0
 19 21  1  0
 19 22  1  0
 20 31  1  0
 21 32  1  0
 21 33  1  0
 21 34  1  0
 22 35  1  0
 22 36  1  0
 22 37  1  0
M  END
>  <s_m_entry_id>  (1) 
468

>  <Name>  (1) 
5d

>  <IC50[nM]>  (1) 
10.5

>  <s_m_Source_Path>  (1) 
/projects/mai/users/kmzp800_harry/pmx_colab/docking_jobs/tnks2

>  <s_m_Source_File>  (1) 
tnks2_lig.sdf

>  <i_m_Source_File_Index>  (1) 
27

>  <s_m_job_name>  (1) 
glide-dock_SP_tnks2_core_const

>  <r_i_docking_score>  (1) 
-10.4811838826317

>  <r_i_glide_gscore>  (1) 
-10.4811838826317

>  <r_i_glide_emodel>  (1) 
-42.3294041011575

>  <index_string>  (1) 
26:0:0

$$$$
