8:0:0
     RDKit          3D

 48 51  0  0  1  0  0  0  0  0999 V2000
    7.2703    4.8205   12.6730 C   0  0  0  0  0  0  0  0  0  0  0  0
    6.5456    4.4041   13.8174 O   0  0  0  0  0  0  0  0  0  0  0  0
    5.6300    3.4037   13.6147 C   0  0  0  0  0  0  0  0  0  0  0  0
    5.8130    2.2167   14.3436 C   0  0  0  0  0  0  0  0  0  0  0  0
    4.9128    1.1508   14.2174 C   0  0  0  0  0  0  0  0  0  0  0  0
    3.7715    1.2795   13.4115 C   0  0  0  0  0  0  0  0  0  0  0  0
    2.8664    0.2087   13.4176 N   0  0  0  0  0  0  0  0  0  0  0  0
    1.4663    0.2486   13.4434 C   0  0  0  0  0  0  0  0  0  0  0  0
    0.8381    1.2303   12.8683 N   0  0  0  0  0  0  0  0  0  0  0  0
   -0.5321    1.2393   12.8601 C   0  0  0  0  0  0  0  0  0  0  0  0
   -1.2944    0.2406   13.4173 C   0  0  0  0  0  0  0  0  0  0  0  0
   -0.6351   -0.7569   14.0651 N   0  0  0  0  0  0  0  0  0  0  0  0
   -1.0862   -1.8566   14.7717 C   0  0  0  0  0  0  0  0  0  0  0  0
    0.0267   -2.5079   15.2292 C   0  0  0  0  0  0  0  0  0  0  0  0
    1.1818   -1.8603   14.8100 N   0  0  0  0  0  0  0  0  0  0  0  0
    0.7767   -0.7995   14.1136 C   0  0  0  0  0  0  0  0  0  0  0  0
   -1.1376    2.4193   12.2250 C   0  0  0  0  0  0  0  0  0  0  0  0
   -2.1369    2.2784   11.2409 C   0  0  0  0  0  0  0  0  0  0  0  0
   -2.7071    3.4135   10.6345 C   0  0  0  0  0  0  0  0  0  0  0  0
   -2.2816    4.7006   11.0124 C   0  0  0  0  0  0  0  0  0  0  0  0
   -1.2879    4.8692   12.0040 C   0  0  0  0  0  0  0  0  0  0  0  0
   -0.7291    3.7182   12.6057 C   0  0  0  0  0  0  0  0  0  0  0  0
   -0.8911    6.2566   12.4345 C   0  0  0  0  0  0  0  0  0  0  0  0
   -1.6297    7.2112   12.2171 O   0  0  0  0  0  0  0  0  0  0  0  0
    0.3025    6.4024   13.0133 N   0  0  0  0  0  0  0  0  0  0  0  0
    3.6027    2.4575   12.6421 C   0  0  0  0  0  0  0  0  0  0  0  0
    4.5247    3.5329   12.7386 C   0  0  0  0  0  0  0  0  0  0  0  0
    4.3944    4.7154   12.0387 O   0  0  0  0  0  0  0  0  0  0  0  0
    3.2213    4.9184   11.2590 C   0  0  0  0  0  0  0  0  0  0  0  0
    8.2215    5.2334   13.0135 H   0  0  0  0  0  0  0  0  0  0  0  0
    7.4986    4.0041   11.9878 H   0  0  0  0  0  0  0  0  0  0  0  0
    6.7422    5.6035   12.1203 H   0  0  0  0  0  0  0  0  0  0  0  0
    6.6664    2.1208   15.0008 H   0  0  0  0  0  0  0  0  0  0  0  0
    5.0774    0.2513   14.7962 H   0  0  0  0  0  0  0  0  0  0  0  0
    3.2030   -0.6080   13.9091 H   0  0  0  0  0  0  0  0  0  0  0  0
   -2.3742    0.2179   13.4128 H   0  0  0  0  0  0  0  0  0  0  0  0
   -2.1405   -2.0504   14.8874 H   0  0  0  0  0  0  0  0  0  0  0  0
    0.0908   -3.4053   15.8298 H   0  0  0  0  0  0  0  0  0  0  0  0
   -2.4617    1.2932   10.9359 H   0  0  0  0  0  0  0  0  0  0  0  0
   -3.4666    3.3021    9.8736 H   0  0  0  0  0  0  0  0  0  0  0  0
   -2.7303    5.5640   10.5406 H   0  0  0  0  0  0  0  0  0  0  0  0
    0.0182    3.8169   13.3787 H   0  0  0  0  0  0  0  0  0  0  0  0
    0.6180    7.3166   13.3234 H   0  0  0  0  0  0  0  0  0  0  0  0
    0.8936    5.6018   13.1651 H   0  0  0  0  0  0  0  0  0  0  0  0
    2.7608    2.5273   11.9738 H   0  0  0  0  0  0  0  0  0  0  0  0
    3.2279    5.9351   10.8631 H   0  0  0  0  0  0  0  0  0  0  0  0
    3.1795    4.2314   10.4120 H   0  0  0  0  0  0  0  0  0  0  0  0
    2.3177    4.8053   11.8600 H   0  0  0  0  0  0  0  0  0  0  0  0
  1  2  1  0
  1 30  1  0
  1 31  1  0
  1 32  1  0
  2  3  1  0
  3  4  2  0
  3 27  1  0
  4  5  1  0
  4 33  1  0
  5  6  2  0
  5 34  1  0
  6  7  1  0
  6 26  1  0
  7  8  1  0
  7 35  1  0
  8  9  2  0
  8 16  1  0
  9 10  1  0
 10 11  2  0
 10 17  1  0
 11 12  1  0
 11 36  1  0
 12 13  1  0
 12 16  1  0
 13 14  2  0
 13 37  1  0
 14 15  1  0
 14 38  1  0
 15 16  2  0
 17 18  2  0
 17 22  1  0
 18 19  1  0
 18 39  1  0
 19 20  2  0
 19 40  1  0
 20 21  1  0
 20 41  1  0
 21 22  2  0
 21 23  1  0
 22 42  1  0
 23 24  2  0
 23 25  1  0
 25 43  1  0
 25 44  1  0
 26 27  2  0
 26 45  1  0
 27 28  1  0
 28 29  1  0
 29 46  1  0
 29 47  1  0
 29 48  1  0
M  END
>  <s_m_entry_id>  (1) 
688

>  <IC50[nM]>  (1) 
27.1

>  <s_m_Source_Path>  (1) 
/projects/mai/users/kmzp800_harry/pmx_colab/docking_jobs/syk

>  <s_m_Source_File>  (1) 
tnks2_lig.sdf

>  <i_m_Source_File_Index>  (1) 
9

>  <s_m_job_name>  (1) 
glide-dock_SP_tnks2_no_const

>  <r_i_docking_score>  (1) 
-6.93531771318747

>  <r_i_glide_gscore>  (1) 
-6.93531771318747

>  <r_i_glide_emodel>  (1) 
-67.933830034332

>  <index_string>  (1) 
8:0:0

$$$$
