12:0:0
     RDKit          3D

 50 54  0  0  1  0  0  0  0  0999 V2000
   -4.1589    4.5764    8.8351 C   0  0  0  0  0  0  0  0  0  0  0  0
   -3.1185    5.5203    8.6358 O   0  0  0  0  0  0  0  0  0  0  0  0
   -1.8391    5.1726    9.0173 C   0  0  0  0  0  0  0  0  0  0  0  0
   -1.5330    4.0018    9.7534 C   0  0  0  0  0  0  0  0  0  0  0  0
   -0.2073    3.7117   10.1204 C   0  0  0  0  0  0  0  0  0  0  0  0
    0.8402    4.5882    9.7660 C   0  0  0  0  0  0  0  0  0  0  0  0
    2.1885    4.3801   10.0952 N   0  0  0  0  0  0  0  0  0  0  0  0
    2.7682    3.7670   11.2163 C   0  0  0  0  0  0  0  0  0  0  0  0
    2.1784    2.7734   11.8166 N   0  0  0  0  0  0  0  0  0  0  0  0
    2.7902    2.1530   12.8844 C   0  0  0  0  0  0  0  0  0  0  0  0
    4.0118    2.5688   13.3688 C   0  0  0  0  0  0  0  0  0  0  0  0
    4.6243    3.6085   12.7410 N   0  0  0  0  0  0  0  0  0  0  0  0
    5.8385    4.2355   12.9568 C   0  0  0  0  0  0  0  0  0  0  0  0
    5.9515    5.2040   11.9964 C   0  0  0  0  0  0  0  0  0  0  0  0
    4.8300    5.2230   11.1762 N   0  0  0  0  0  0  0  0  0  0  0  0
    4.0367    4.2534   11.6312 C   0  0  0  0  0  0  0  0  0  0  0  0
    2.0561    0.9946   13.4591 C   0  0  0  0  0  0  0  0  0  0  0  0
    2.7280   -0.0032   14.2112 C   0  0  0  0  0  0  0  0  0  0  0  0
    2.0299   -1.0804   14.7912 C   0  0  0  0  0  0  0  0  0  0  0  0
    0.6422   -1.1764   14.6038 C   0  0  0  0  0  0  0  0  0  0  0  0
   -0.0703   -0.2254   13.8292 C   0  0  0  0  0  0  0  0  0  0  0  0
   -1.4281   -0.6744   13.8411 C   0  0  0  0  0  0  0  0  0  0  0  0
   -1.5747   -1.7583   14.5643 N   0  0  0  0  0  0  0  0  0  0  0  0
   -0.3341   -2.0658   15.0309 N   0  0  0  0  0  0  0  0  0  0  0  0
   -0.1840   -3.2313   15.8783 C   0  0  0  0  0  0  0  0  0  0  0  0
    0.6558    0.8541   13.2774 C   0  0  0  0  0  0  0  0  0  0  0  0
    0.5359    5.7427    9.0181 C   0  0  0  0  0  0  0  0  0  0  0  0
   -0.7948    6.0460    8.6382 C   0  0  0  0  0  0  0  0  0  0  0  0
   -1.1421    7.1602    7.9006 O   0  0  0  0  0  0  0  0  0  0  0  0
   -0.1133    8.0553    7.5032 C   0  0  0  0  0  0  0  0  0  0  0  0
   -5.0818    4.9653    8.4051 H   0  0  0  0  0  0  0  0  0  0  0  0
   -3.9386    3.6290    8.3405 H   0  0  0  0  0  0  0  0  0  0  0  0
   -4.3382    4.3996    9.8963 H   0  0  0  0  0  0  0  0  0  0  0  0
   -2.3012    3.3064   10.0537 H   0  0  0  0  0  0  0  0  0  0  0  0
   -0.0187    2.8045   10.6687 H   0  0  0  0  0  0  0  0  0  0  0  0
    2.8039    5.0979    9.7381 H   0  0  0  0  0  0  0  0  0  0  0  0
    4.5285    2.1311   14.2142 H   0  0  0  0  0  0  0  0  0  0  0  0
    6.4970    3.9115   13.7485 H   0  0  0  0  0  0  0  0  0  0  0  0
    6.7675    5.8913   11.8173 H   0  0  0  0  0  0  0  0  0  0  0  0
    3.7960    0.0494   14.3586 H   0  0  0  0  0  0  0  0  0  0  0  0
    2.5528   -1.8250   15.3736 H   0  0  0  0  0  0  0  0  0  0  0  0
   -2.2865   -0.2350   13.3567 H   0  0  0  0  0  0  0  0  0  0  0  0
    0.7710   -3.1959   16.4025 H   0  0  0  0  0  0  0  0  0  0  0  0
   -0.9844   -3.2617   16.6182 H   0  0  0  0  0  0  0  0  0  0  0  0
   -0.2212   -4.1356   15.2714 H   0  0  0  0  0  0  0  0  0  0  0  0
    0.1111    1.5919   12.7084 H   0  0  0  0  0  0  0  0  0  0  0  0
    1.3489    6.3983    8.7463 H   0  0  0  0  0  0  0  0  0  0  0  0
   -0.5491    8.8655    6.9188 H   0  0  0  0  0  0  0  0  0  0  0  0
    0.3826    8.5011    8.3667 H   0  0  0  0  0  0  0  0  0  0  0  0
    0.6298    7.5614    6.8754 H   0  0  0  0  0  0  0  0  0  0  0  0
  1  2  1  0
  1 31  1  0
  1 32  1  0
  1 33  1  0
  2  3  1  0
  3  4  2  0
  3 28  1  0
  4  5  1  0
  4 34  1  0
  5  6  2  0
  5 35  1  0
  6  7  1  0
  6 27  1  0
  7  8  1  0
  7 36  1  0
  8  9  2  0
  8 16  1  0
  9 10  1  0
 10 11  2  0
 10 17  1  0
 11 12  1  0
 11 37  1  0
 12 13  1  0
 12 16  1  0
 13 14  2  0
 13 38  1  0
 14 15  1  0
 14 39  1  0
 15 16  2  0
 17 18  2  0
 17 26  1  0
 18 19  1  0
 18 40  1  0
 19 20  2  0
 19 41  1  0
 20 21  1  0
 20 24  1  0
 21 22  1  0
 21 26  2  0
 22 23  2  0
 22 42  1  0
 23 24  1  0
 24 25  1  0
 25 43  1  0
 25 44  1  0
 25 45  1  0
 26 46  1  0
 27 28  2  0
 27 47  1  0
 28 29  1  0
 29 30  1  0
 30 48  1  0
 30 49  1  0
 30 50  1  0
M  END
>  <s_m_entry_id>  (1) 
692

>  <IC50[nM]>  (1) 
20.9

>  <s_m_Source_Path>  (1) 
/projects/mai/users/kmzp800_harry/pmx_colab/docking_jobs/syk

>  <s_m_Source_File>  (1) 
tnks2_lig.sdf

>  <i_m_Source_File_Index>  (1) 
13

>  <s_m_job_name>  (1) 
glide-dock_SP_tnks2_no_const

>  <r_i_docking_score>  (1) 
-6.36986625092394

>  <r_i_glide_gscore>  (1) 
-6.36986625092394

>  <r_i_glide_emodel>  (1) 
-63.0245229276993

>  <index_string>  (1) 
12:0:0

$$$$
