30:0:0
     RDKit          3D

 47 51  0  0  1  0  0  0  0  0999 V2000
    5.6110   -0.5790   16.3310 C   0  0  0  0  0  0  0  0  0  0  0  0
    4.3400   -1.0430   16.2270 N   0  0  0  0  0  0  0  0  0  0  0  0
    3.8230   -0.3210   15.2170 C   0  0  0  0  0  0  0  0  0  0  0  0
    2.5310   -0.4090   14.7050 C   0  0  0  0  0  0  0  0  0  0  0  0
    1.5910   -1.3430   15.2550 N   0  0  0  0  0  0  0  0  0  0  0  0
    2.2020    0.4210   13.6700 N   0  0  0  0  0  0  0  0  0  0  0  0
    3.0940    1.3160   13.1390 C   0  0  0  0  0  0  0  0  0  0  0  0
    4.3930    1.3850   13.6760 C   0  0  0  0  0  0  0  0  0  0  0  0
    4.6930    0.5520   14.7010 N   0  0  0  0  0  0  0  0  0  0  0  0
    5.8380    0.4160   15.3820 C   0  0  0  0  0  0  0  0  0  0  0  0
    2.6850    2.1900   12.0200 C   0  0  0  0  0  0  0  0  0  0  0  0
    3.6420    2.5930   11.0530 C   0  0  0  0  0  0  0  0  0  0  0  0
    3.2830    3.4250    9.9770 C   0  0  0  0  0  0  0  0  0  0  0  0
    1.9560    3.8320    9.9040 C   0  0  0  0  0  0  0  0  0  0  0  0
    1.2970    4.6280    8.9970 C   0  0  0  0  0  0  0  0  0  0  0  0
    0.0040    4.6950    9.4080 N   0  0  0  0  0  0  0  0  0  0  0  0
   -0.1640    3.9820   10.5180 N   0  0  0  0  0  0  0  0  0  0  0  0
    1.0280    3.4530   10.8240 C   0  0  0  0  0  0  0  0  0  0  0  0
    1.3460    2.6310   11.9010 C   0  0  0  0  0  0  0  0  0  0  0  0
    0.2340   -1.5520   14.8400 C   0  0  0  0  0  0  0  0  0  0  0  0
   -0.4330   -2.7660   15.0550 C   0  0  0  0  0  0  0  0  0  0  0  0
   -1.7540   -2.9300   14.6360 C   0  0  0  0  0  0  0  0  0  0  0  0
   -2.4300   -1.8800   13.9930 C   0  0  0  0  0  0  0  0  0  0  0  0
   -1.7700   -0.6630   13.7740 C   0  0  0  0  0  0  0  0  0  0  0  0
   -0.4390   -0.5090   14.1990 C   0  0  0  0  0  0  0  0  0  0  0  0
   -3.7550   -2.0260   13.5650 O   0  0  0  0  0  0  0  0  0  0  0  0
   -4.2040   -3.1520   12.8230 C   0  0  0  0  0  0  0  0  0  0  0  0
   -2.4500    0.3790   13.1320 O   0  0  0  0  0  0  0  0  0  0  0  0
   -1.9230    1.0600   12.0010 C   0  0  0  0  0  0  0  0  0  0  0  0
    6.3543   -0.9364   17.0588 H   0  0  0  0  0  0  0  0  0  0  0  0
    1.9276   -1.9276   16.0333 H   0  0  0  0  0  0  0  0  0  0  0  0
    5.1377    2.0899   13.2777 H   0  0  0  0  0  0  0  0  0  0  0  0
    6.7708    0.9772   15.2240 H   0  0  0  0  0  0  0  0  0  0  0  0
    4.6826    2.2489   11.1463 H   0  0  0  0  0  0  0  0  0  0  0  0
    4.0214    3.7402    9.2250 H   0  0  0  0  0  0  0  0  0  0  0  0
    1.7318    5.1152    8.1118 H   0  0  0  0  0  0  0  0  0  0  0  0
   -1.0423    3.8599   11.0420 H   0  0  0  0  0  0  0  0  0  0  0  0
    0.5822    2.3342   12.6348 H   0  0  0  0  0  0  0  0  0  0  0  0
    0.0881   -3.5945   15.5571 H   0  0  0  0  0  0  0  0  0  0  0  0
   -2.2685   -3.8865   14.8102 H   0  0  0  0  0  0  0  0  0  0  0  0
    0.0795    0.4453   14.0246 H   0  0  0  0  0  0  0  0  0  0  0  0
   -4.5204   -3.9454   13.5161 H   0  0  0  0  0  0  0  0  0  0  0  0
   -5.0538   -2.8584   12.1893 H   0  0  0  0  0  0  0  0  0  0  0  0
   -3.3853   -3.5237   12.1893 H   0  0  0  0  0  0  0  0  0  0  0  0
   -1.2821    1.8882   12.3375 H   0  0  0  0  0  0  0  0  0  0  0  0
   -1.3293    0.3597   11.3951 H   0  0  0  0  0  0  0  0  0  0  0  0
   -2.7499    1.4590   11.3951 H   0  0  0  0  0  0  0  0  0  0  0  0
  1  2  1  0
  1 10  2  0
  2  3  2  0
  3  4  1  0
  3  9  1  0
  4  5  1  0
  4  6  2  0
  5 20  1  0
  6  7  1  0
  7  8  2  0
  7 11  1  0
  8  9  1  0
  9 10  1  0
 11 12  2  0
 11 19  1  0
 12 13  1  0
 13 14  2  0
 14 18  1  0
 14 15  1  0
 15 16  2  0
 16 17  1  0
 17 18  1  0
 18 19  2  0
 20 21  2  0
 20 25  1  0
 21 22  1  0
 22 23  2  0
 23 24  1  0
 23 26  1  0
 24 25  2  0
 24 28  1  0
 26 27  1  0
 28 29  1  0
  1 30  1  0
  5 31  1  0
  8 32  1  0
 10 33  1  0
 12 34  1  0
 13 35  1  0
 15 36  1  0
 17 37  1  0
 19 38  1  0
 21 39  1  0
 22 40  1  0
 25 41  1  0
 27 42  1  0
 27 43  1  0
 27 44  1  0
 29 45  1  0
 29 46  1  0
 29 47  1  0
M  END
>  <s_m_entry_id>  (1) 
907

>  <MODEL>  (1) 
1

>  <REMARK>  (1) 
 VINA RESULT:    -9.332      0.000      0.000
 INTER + INTRA:         -12.075
 INTER:                 -11.688
 INTRA:                  -0.388
 UNBOUND:                -0.561
  Name = /scratch/kmzp800/tmp54yk9psx/tmprv9p0wzf.pdb
  6 active torsions:
  status: ('A' for Active; 'I' for Inactive)
    1  A    between atoms: N2_5  and  C4_6
    2  A    between atoms: C7_9  and  O1_10
    3  A    between atoms: O1_10  and  C8_11
    4  A    between atoms: C9_12  and  O2_13
    5  A    between atoms: O2_13  and  C10_14
    6  A    between atoms: C12_17  and  C13_18
                            x       y       z     vdW  Elec       q    Type
                         _______ _______ _______ _____ _____    ______ ____

>  <TORSDO>  (1) 
F 4

>  <grid_id>  (1) 
syk-prepared

>  <grid_path>  (1) 
syk_vina.pdbqt

>  <grid_filename>  (1) 
syk_vina.pdbqt

>  <docking_score>  (1) 
-9.332

>  <compound_name>  (1) 
CHEMBL3265017

>  <index_string>  (1) 
30:0:0

>  <s_m_Source_Path>  (1) 
/projects/mai/users/kmzp800_harry/pmx_colab/docking_jobs/syk/vina_prep/output

>  <s_m_Source_File>  (1) 
ptp1b_docked_conformers.sdf

>  <i_m_Source_File_Index>  (1) 
731

$$$$
