24:0:0
     RDKit          3D

 47 49  0  0  1  0  0  0  0  0999 V2000
  -15.2013  -19.2718  -25.9388 C   0  0  0  0  0  0  0  0  0  0  0  0
  -14.7803  -19.8424  -27.1567 C   0  0  0  0  0  0  0  0  0  0  0  0
  -15.4395  -20.1044  -24.8216 C   0  0  0  0  0  0  0  0  0  0  0  0
  -14.5634  -21.2191  -27.2413 C   0  0  0  0  0  0  0  0  0  0  0  0
  -15.2085  -21.4897  -24.9187 C   0  0  0  0  0  0  0  0  0  0  0  0
  -14.8485  -17.0169  -26.7521 N   0  0  0  0  0  0  0  0  0  0  0  0
  -14.7575  -22.0650  -26.1241 C   0  0  0  0  0  0  0  0  0  0  0  0
  -14.4701  -23.5738  -26.1883 C   0  0  0  0  0  0  0  0  0  0  0  0
  -15.0379  -15.6110  -26.6738 C   0  0  0  0  0  0  0  0  0  0  0  0
  -15.7538  -15.0200  -25.6034 C   0  0  0  0  0  0  0  0  0  0  0  0
  -15.2379  -12.8288  -26.4886 C   0  0  0  0  0  0  0  0  0  0  0  0
  -14.5304  -13.3920  -27.5352 C   0  0  0  0  0  0  0  0  0  0  0  0
  -15.8770  -13.6078  -25.5246 C   0  0  0  0  0  0  0  0  0  0  0  0
  -14.4556  -14.7799  -27.6555 C   0  0  0  0  0  0  0  0  0  0  0  0
  -16.3760  -15.9498  -24.6092 C   0  0  0  0  0  0  0  0  0  0  0  0
  -16.1312  -17.2521  -24.8160 N   0  0  0  0  0  0  0  0  0  0  0  0
  -15.3791  -17.7893  -25.8489 C   0  0  0  0  0  0  0  0  0  0  0  0
  -17.0538  -15.5839  -23.6680 O   0  0  0  0  0  0  0  0  0  0  0  0
  -15.7423  -24.3206  -25.7020 C   0  0  0  0  0  0  0  0  0  0  0  0
  -14.1067  -23.9547  -27.5276 O   0  0  0  0  0  0  0  0  0  0  0  0
  -13.2237  -23.8749  -25.3164 C   0  0  0  0  0  0  0  0  0  0  0  0
  -13.7494  -15.3321  -28.8364 C   0  0  0  0  0  0  0  0  0  0  0  0
  -15.3329  -11.5111  -26.4912 F   0  0  0  0  0  0  0  0  0  0  0  0
  -14.5150  -25.2046  -28.1022 C   0  0  0  0  0  0  0  0  0  0  0  0
  -13.8807  -26.4786  -27.5059 C   0  0  0  0  0  0  0  0  0  0  0  0
  -12.5998  -26.7430  -28.0417 O   0  0  0  0  0  0  0  0  0  0  0  0
  -14.6158  -19.2440  -28.0399 H   0  0  0  0  0  0  0  0  0  0  0  0
  -15.7877  -19.7062  -23.8859 H   0  0  0  0  0  0  0  0  0  0  0  0
  -14.2324  -21.5721  -28.1922 H   0  0  0  0  0  0  0  0  0  0  0  0
  -15.3881  -22.1072  -24.0488 H   0  0  0  0  0  0  0  0  0  0  0  0
  -14.0666  -12.7534  -28.2637 H   0  0  0  0  0  0  0  0  0  0  0  0
  -16.4582  -13.1748  -24.7339 H   0  0  0  0  0  0  0  0  0  0  0  0
  -16.5580  -17.8983  -24.1657 H   0  0  0  0  0  0  0  0  0  0  0  0
  -15.9573  -24.1657  -24.6452 H   0  0  0  0  0  0  0  0  0  0  0  0
  -16.5893  -23.9566  -26.2859 H   0  0  0  0  0  0  0  0  0  0  0  0
  -15.6944  -25.3927  -25.8765 H   0  0  0  0  0  0  0  0  0  0  0  0
  -13.3832  -23.6577  -24.2525 H   0  0  0  0  0  0  0  0  0  0  0  0
  -12.8485  -24.8891  -25.3896 H   0  0  0  0  0  0  0  0  0  0  0  0
  -12.4059  -23.2374  -25.6700 H   0  0  0  0  0  0  0  0  0  0  0  0
  -13.7060  -14.6165  -29.6602 H   0  0  0  0  0  0  0  0  0  0  0  0
  -12.7301  -15.5710  -28.5207 H   0  0  0  0  0  0  0  0  0  0  0  0
  -14.2692  -16.2444  -29.1381 H   0  0  0  0  0  0  0  0  0  0  0  0
  -14.2430  -25.1843  -29.1563 H   0  0  0  0  0  0  0  0  0  0  0  0
  -15.5971  -25.3023  -28.0918 H   0  0  0  0  0  0  0  0  0  0  0  0
  -14.4917  -27.3472  -27.7627 H   0  0  0  0  0  0  0  0  0  0  0  0
  -13.8062  -26.4582  -26.4183 H   0  0  0  0  0  0  0  0  0  0  0  0
  -12.6807  -26.7829  -28.9818 H   0  0  0  0  0  0  0  0  0  0  0  0
  1  2  2  0
  1  3  1  0
  1 17  1  0
  2  4  1  0
  2 27  1  0
  3  5  2  0
  3 28  1  0
  4  7  2  0
  4 29  1  0
  5  7  1  0
  5 30  1  0
  6  9  1  0
  6 17  2  0
  7  8  1  0
  8 19  1  0
  8 20  1  0
  8 21  1  0
  9 10  2  0
  9 14  1  0
 10 13  1  0
 10 15  1  0
 11 12  1  0
 11 13  2  0
 11 23  1  0
 12 14  2  0
 12 31  1  0
 13 32  1  0
 14 22  1  0
 15 16  1  0
 15 18  2  0
 16 17  1  0
 16 33  1  0
 19 34  1  0
 19 35  1  0
 19 36  1  0
 20 24  1  0
 21 37  1  0
 21 38  1  0
 21 39  1  0
 22 40  1  0
 22 41  1  0
 22 42  1  0
 24 25  1  0
 24 43  1  0
 24 44  1  0
 25 26  1  0
 25 45  1  0
 25 46  1  0
 26 47  1  0
M  END
>  <s_m_entry_id>  (1) 
521

>  <Name>  (1) 
5o

>  <IC50[nM]>  (1) 
1.5

>  <s_m_Source_Path>  (1) 
/projects/mai/users/kmzp800_harry/pmx_colab/docking_jobs/tnks2

>  <s_m_Source_File>  (1) 
tnks2_lig.sdf

>  <i_m_Source_File_Index>  (1) 
10

>  <s_m_job_name>  (1) 
glide-dock_SP_tnks_mcs_fallabck

>  <r_i_docking_score>  (1) 
-9.44685332723726

>  <r_i_glide_gscore>  (1) 
-9.44685332723726

>  <r_i_glide_emodel>  (1) 
-33.2544345692521

>  <index_string>  (1) 
24:0:0

$$$$
