12:0:0
     RDKit          3D

 53 55  0  0  1  0  0  0  0  0999 V2000
   42.4040    9.2750   16.8700 C   0  0  0  0  0  0  0  0  0  0  0  0
   42.7570   10.6170   16.7030 C   0  0  0  0  0  0  0  0  0  0  0  0
   41.9510   11.4800   15.9460 C   0  0  0  0  0  0  0  0  0  0  0  0
   40.7930   10.9660   15.3470 C   0  0  0  0  0  0  0  0  0  0  0  0
   40.4360    9.6190   15.5030 C   0  0  0  0  0  0  0  0  0  0  0  0
   41.2450    8.7780   16.2710 C   0  0  0  0  0  0  0  0  0  0  0  0
   42.3210   12.8960   15.7200 C   0  0  0  0  0  0  0  0  0  0  0  0
   43.4020   13.7350   16.7030 S   0  0  0  0  0  0  0  0  0  0  0  0
   43.3250   15.1980   15.8880 C   0  0  0  0  0  0  0  0  0  0  0  0
   42.4410   15.0680   14.8170 C   0  0  0  0  0  0  0  0  0  0  0  0
   41.8800   13.7670   14.7080 C   0  0  0  0  0  0  0  0  0  0  0  0
   40.7690   13.1900   13.2440 Br  0  0  0  0  0  0  0  0  0  0  0  0
   44.0720   16.4060   16.2710 C   0  0  0  0  0  0  0  0  0  0  0  0
   44.5320   16.5200   17.4370 O   0  0  0  0  0  0  0  0  0  0  0  0
   44.2770   17.4330   15.3570 O   0  0  0  0  0  0  0  0  0  0  0  0
   42.1890   16.1540   13.9670 O   0  0  0  0  0  0  0  0  0  0  0  0
   41.1140   17.0670   14.1200 C   0  0  0  0  0  0  0  0  0  0  0  0
   40.4010   17.2160   12.8260 C   0  0  0  0  0  0  0  0  0  0  0  0
   39.1450   17.2810   12.8030 O   0  0  0  0  0  0  0  0  0  0  0  0
   41.1180   17.2420   11.6370 O   0  0  0  0  0  0  0  0  0  0  0  0
   39.2550    9.0920   14.8900 N   0  0  0  0  0  0  0  0  0  0  0  0
   38.6960    7.7890   15.2310 C   0  0  0  0  0  0  0  0  0  0  0  0
   39.5560    6.6610   14.6690 C   0  0  0  0  0  0  0  0  0  0  0  0
   39.5990    6.7050   13.1290 C   0  0  0  0  0  0  0  0  0  0  0  0
   39.1360    5.4080   12.4640 C   0  0  0  0  0  0  0  0  0  0  0  0
   37.8910    4.9510   13.0780 N   0  0  0  0  0  0  0  0  0  0  0  0
   36.7910    4.5440   12.2560 C   0  0  0  0  0  0  0  0  0  0  0  0
   36.8960    4.5760   10.9980 O   0  0  0  0  0  0  0  0  0  0  0  0
   37.7760    4.8680   14.5360 C   0  0  0  0  0  0  0  0  0  0  0  0
   39.0690    5.3170   15.2220 C   0  0  0  0  0  0  0  0  0  0  0  0
   35.6010    4.1150   12.8500 O   0  0  0  0  0  0  0  0  0  0  0  0
   34.3320    4.4100   12.2880 C   0  0  0  0  0  0  0  0  0  0  0  0
   43.0395    8.6103   17.4735 H   0  0  0  0  0  0  0  0  0  0  0  0
   43.6762   11.0003   17.1700 H   0  0  0  0  0  0  0  0  0  0  0  0
   40.1544   11.6294   14.7453 H   0  0  0  0  0  0  0  0  0  0  0  0
   40.9682    7.7218   16.4041 H   0  0  0  0  0  0  0  0  0  0  0  0
   40.4164   16.6874   14.8811 H   0  0  0  0  0  0  0  0  0  0  0  0
   41.5065   18.0447   14.4363 H   0  0  0  0  0  0  0  0  0  0  0  0
   38.7778    9.6593   14.1749 H   0  0  0  0  0  0  0  0  0  0  0  0
   38.6480    7.6935   16.3258 H   0  0  0  0  0  0  0  0  0  0  0  0
   37.6897    7.7139   14.7931 H   0  0  0  0  0  0  0  0  0  0  0  0
   40.5971    6.7939   14.9984 H   0  0  0  0  0  0  0  0  0  0  0  0
   38.9477    7.5226   12.7866 H   0  0  0  0  0  0  0  0  0  0  0  0
   40.6497    6.8568   12.8409 H   0  0  0  0  0  0  0  0  0  0  0  0
   38.9694    5.5873   11.3916 H   0  0  0  0  0  0  0  0  0  0  0  0
   39.9094    4.6371   12.5964 H   0  0  0  0  0  0  0  0  0  0  0  0
   36.9508    5.5152   14.8679 H   0  0  0  0  0  0  0  0  0  0  0  0
   37.5830    3.8203   14.8102 H   0  0  0  0  0  0  0  0  0  0  0  0
   39.8465    4.5574   15.0532 H   0  0  0  0  0  0  0  0  0  0  0  0
   38.8680    5.4365   16.2968 H   0  0  0  0  0  0  0  0  0  0  0  0
   33.6040    4.5792   13.0950 H   0  0  0  0  0  0  0  0  0  0  0  0
   34.4075    5.3145   11.6666 H   0  0  0  0  0  0  0  0  0  0  0  0
   34.0008    3.5649   11.6666 H   0  0  0  0  0  0  0  0  0  0  0  0
  1  2  2  0
  1  6  1  0
  1 33  1  0
  2  3  1  0
  2 34  1  0
  3  4  2  0
  3  7  1  0
  4  5  1  0
  4 35  1  0
  5  6  2  0
  5 21  1  0
  6 36  1  0
  7  8  1  0
  7 11  2  0
  8  9  1  0
  9 13  1  0
  9 10  2  0
 10 11  1  0
 10 16  1  0
 11 12  1  0
 13 14  1  0
 13 15  2  0
 16 17  1  0
 17 18  1  0
 17 37  1  0
 17 38  1  0
 18 19  1  0
 18 20  2  0
 21 22  1  0
 21 39  1  0
 22 23  1  0
 22 40  1  0
 22 41  1  0
 23 30  1  0
 23 24  1  0
 23 42  1  0
 24 25  1  0
 24 43  1  0
 24 44  1  0
 25 26  1  0
 25 45  1  0
 25 46  1  0
 26 29  1  0
 26 27  1  0
 27 31  1  0
 27 28  2  0
 29 30  1  0
 29 47  1  0
 29 48  1  0
 30 49  1  0
 30 50  1  0
 31 32  1  0
 32 51  1  0
 32 52  1  0
 32 53  1  0
M  CHG  2  14  -1  19  -1
M  END
>  <s_m_entry_id>  (1) 
1358

>  <MODEL>  (1) 
1

>  <REMARK>  (1) 
 VINA RESULT:    -8.241      0.000      0.000
 INTER + INTRA:         -12.469
 INTER:                 -12.578
 INTRA:                   0.109
 UNBOUND:                 0.109
  Name = /scratch/kmzp800/tmp9gkzapmq/tmp52d6zc9b.pdb
  10 active torsions:
  status: ('A' for Active; 'I' for Inactive)
    1  A    between atoms: C3_3  and  C4_4
    2  A    between atoms: C5_6  and  C6_7
    3  A    between atoms: C7_10  and  O3_11
    4  A    between atoms: O3_11  and  C8_12
    5  A    between atoms: C8_12  and  C9_13
    6  A    between atoms: C12_19  and  N1_20
    7  A    between atoms: N1_20  and  C13_21
    8  A    between atoms: C13_21  and  C14_22
    9  A    between atoms: C17_26  and  O7_28
   10  A    between atoms: O7_28  and  C18_29
                            x       y       z     vdW  Elec       q    Type
                         _______ _______ _______ _____ _____    ______ ____

>  <TORSDO>  (1) 
F 9

>  <grid_id>  (1) 
ptp1b-prepared

>  <grid_path>  (1) 
ptp1b_vina.pdbqt

>  <grid_filename>  (1) 
ptp1b_vina.pdbqt

>  <docking_score>  (1) 
-8.241

>  <compound_name>  (1) 
lig_23480

>  <index_string>  (1) 
12:0:0

>  <s_m_Source_Path>  (1) 
/projects/mai/users/kmzp800_harry/pmx_colab/docking_jobs/ptp1b/vina_prep

>  <s_m_Source_File>  (1) 
ptp1b_vina_naive_confs.sdf

>  <i_m_Source_File_Index>  (1) 
13

$$$$
