23:0:0
     RDKit          3D

 45 47  0  0  1  0  0  0  0  0999 V2000
   31.9850   37.8150   25.7850 N   0  0  0  0  0  0  0  0  0  0  0  0
   32.3450   37.6140   24.4170 C   0  0  0  0  0  0  0  0  0  0  0  0
   32.6640   38.6740   23.6220 N   0  0  0  0  0  0  0  0  0  0  0  0
   33.0100   38.4930   22.3210 C   0  0  0  0  0  0  0  0  0  0  0  0
   33.0440   37.2080   21.7880 C   0  0  0  0  0  0  0  0  0  0  0  0
   33.3900   36.9900   20.4600 C   0  0  0  0  0  0  0  0  0  0  0  0
   33.4050   35.6930   19.9500 C   0  0  0  0  0  0  0  0  0  0  0  0
   33.1040   34.6140   20.8090 C   0  0  0  0  0  0  0  0  0  0  0  0
   33.1790   33.4300   20.3760 O   0  0  0  0  0  0  0  0  0  0  0  0
   32.7560   34.8460   22.1140 N   0  0  0  0  0  0  0  0  0  0  0  0
   32.4330   33.7180   22.9840 C   0  0  0  0  0  0  0  0  0  0  0  0
   32.7190   36.1200   22.6150 C   0  0  0  0  0  0  0  0  0  0  0  0
   32.3780   36.3530   23.9140 N   0  0  0  0  0  0  0  0  0  0  0  0
   31.8620   39.1420   26.3830 C   0  0  0  0  0  0  0  0  0  0  0  0
   32.5910   39.2350   27.7230 C   0  0  0  0  0  0  0  0  0  0  0  0
   33.8200   38.3420   27.7190 C   0  0  0  0  0  0  0  0  0  0  0  0
   31.6800   38.8310   28.8660 C   0  0  0  0  0  0  0  0  0  0  0  0
   32.9980   40.5540   27.9190 O   0  0  0  0  0  0  0  0  0  0  0  0
   33.7650   35.5110   18.6060 O   0  0  0  0  0  0  0  0  0  0  0  0
   35.0660   35.6150   18.0950 C   0  0  0  0  0  0  0  0  0  0  0  0
   36.1170   35.8350   18.9930 C   0  0  0  0  0  0  0  0  0  0  0  0
   37.4310   35.9540   18.5330 C   0  0  0  0  0  0  0  0  0  0  0  0
   37.7030   35.8640   17.1660 C   0  0  0  0  0  0  0  0  0  0  0  0
   38.9760   35.9780   16.7200 F   0  0  0  0  0  0  0  0  0  0  0  0
   36.6600   35.6670   16.2580 C   0  0  0  0  0  0  0  0  0  0  0  0
   35.3430   35.5450   16.7130 C   0  0  0  0  0  0  0  0  0  0  0  0
   34.3470   35.4040   15.8050 F   0  0  0  0  0  0  0  0  0  0  0  0
   31.8047   36.9896   26.3742 H   0  0  0  0  0  0  0  0  0  0  0  0
   33.2623   39.3588   21.6912 H   0  0  0  0  0  0  0  0  0  0  0  0
   33.6516   37.8397   19.8123 H   0  0  0  0  0  0  0  0  0  0  0  0
   32.5220   34.0287   24.0355 H   0  0  0  0  0  0  0  0  0  0  0  0
   31.4035   33.3852   22.7859 H   0  0  0  0  0  0  0  0  0  0  0  0
   33.1303   32.8907   22.7859 H   0  0  0  0  0  0  0  0  0  0  0  0
   32.2907   39.8837   25.6931 H   0  0  0  0  0  0  0  0  0  0  0  0
   30.7943   39.3366   26.5624 H   0  0  0  0  0  0  0  0  0  0  0  0
   34.1188   38.1249   28.7551 H   0  0  0  0  0  0  0  0  0  0  0  0
   33.5876   37.4007   27.1995 H   0  0  0  0  0  0  0  0  0  0  0  0
   34.6435   38.8539   27.1995 H   0  0  0  0  0  0  0  0  0  0  0  0
   32.1743   39.0502   29.8239 H   0  0  0  0  0  0  0  0  0  0  0  0
   30.7383   39.3959   28.8016 H   0  0  0  0  0  0  0  0  0  0  0  0
   31.4665   37.7538   28.8016 H   0  0  0  0  0  0  0  0  0  0  0  0
   33.0556   40.7408   28.8895 H   0  0  0  0  0  0  0  0  0  0  0  0
   35.9067   35.9149   20.0698 H   0  0  0  0  0  0  0  0  0  0  0  0
   38.2511   36.1185   19.2474 H   0  0  0  0  0  0  0  0  0  0  0  0
   36.8752   35.6076   15.1809 H   0  0  0  0  0  0  0  0  0  0  0  0
  1 14  1  0
  1  2  1  0
  2  3  2  0
  2 13  1  0
  3  4  1  0
  4  5  2  0
  5 12  1  0
  5  6  1  0
  6  7  2  0
  7  8  1  0
  7 19  1  0
  8 10  1  0
  8  9  2  0
 10 12  1  0
 10 11  1  0
 12 13  2  0
 14 15  1  0
 15 18  1  0
 15 17  1  0
 15 16  1  0
 19 20  1  0
 20 21  2  0
 20 26  1  0
 21 22  1  0
 22 23  2  0
 23 24  1  0
 23 25  1  0
 25 26  2  0
 26 27  1  0
  1 28  1  0
  4 29  1  0
  6 30  1  0
 11 31  1  0
 11 32  1  0
 11 33  1  0
 14 34  1  0
 14 35  1  0
 16 36  1  0
 16 37  1  0
 16 38  1  0
 17 39  1  0
 17 40  1  0
 17 41  1  0
 18 42  1  0
 21 43  1  0
 22 44  1  0
 25 45  1  0
M  END
>  <s_m_entry_id>  (1) 
73

>  <MODEL>  (1) 
1

>  <REMARK>  (1) 
 VINA RESULT:    -8.335      0.000      0.000
 INTER + INTRA:         -10.826
 INTER:                 -10.371
 INTRA:                  -0.455
 UNBOUND:                -0.298
  Name = /scratch/kmzp800/tmpm0fcmxlp/tmpuv8jhzvj.pdb
  8 active torsions:
  status: ('A' for Active; 'I' for Inactive)
    1  A    between atoms: O1_1  and  C1_2
    2  A    between atoms: C1_2  and  C2_3
    3  A    between atoms: C1_2  and  C3_4
    4  A    between atoms: C1_2  and  C4_5
    5  A    between atoms: C4_5  and  N1_6
    6  A    between atoms: C9_12  and  O2_13
    7  A    between atoms: O2_13  and  C10_14
    8  A    between atoms: N3_24  and  C17_25
                            x       y       z     vdW  Elec       q    Type
                         _______ _______ _______ _____ _____    ______ ____

>  <TORSDO>  (1) 
F 5

>  <grid_id>  (1) 
p38-prepared

>  <grid_path>  (1) 
/projects/mai/users/kmzp800_harry/pmx_colab/docking_jobs/p38/vina_docking/input_files/p38_vina.pdbqt

>  <grid_filename>  (1) 
p38_vina.pdbqt

>  <docking_score>  (1) 
-8.335

>  <compound_name>  (1) 
lig_p38a_2y

>  <index_string>  (1) 
23:0:0

$$$$
