0:0:0
     RDKit          3D

 42 44  0  0  1  0  0  0  0  0999 V2000
   41.6009   17.4863   11.9352 O   0  0  0  0  0  0  0  0  0  0  0  0
   40.7956   17.4160   12.8940 C   0  0  0  0  0  0  0  0  0  0  0  0
   39.6359   17.8864   12.8869 O   0  0  0  0  0  0  0  0  0  0  0  0
   41.2481   16.7303   14.1863 C   0  0  0  0  0  0  0  0  0  0  0  0
   42.4390   15.9783   13.9827 O   0  0  0  0  0  0  0  0  0  0  0  0
   42.6279   14.9978   14.8940 C   0  0  0  0  0  0  0  0  0  0  0  0
   42.0647   13.7015   14.7950 C   0  0  0  0  0  0  0  0  0  0  0  0
   40.9838   13.2958   13.2940 Br  0  0  0  0  0  0  0  0  0  0  0  0
   42.3869   12.8272   15.8074 C   0  0  0  0  0  0  0  0  0  0  0  0
   43.3838   13.6578   16.9789 S   0  0  0  0  0  0  0  0  0  0  0  0
   43.3765   15.1312   16.0310 C   0  0  0  0  0  0  0  0  0  0  0  0
   44.1243   16.2847   16.5335 C   0  0  0  0  0  0  0  0  0  0  0  0
   44.5838   17.0863   15.6940 O   0  0  0  0  0  0  0  0  0  0  0  0
   44.2573   16.4566   17.7637 O   0  0  0  0  0  0  0  0  0  0  0  0
   42.0423   11.4162   16.0259 C   0  0  0  0  0  0  0  0  0  0  0  0
   42.9169   10.5426   16.7124 C   0  0  0  0  0  0  0  0  0  0  0  0
   42.5835    9.1853   16.8942 C   0  0  0  0  0  0  0  0  0  0  0  0
   41.3834    8.6692   16.3682 C   0  0  0  0  0  0  0  0  0  0  0  0
   40.4993    9.5209   15.6712 C   0  0  0  0  0  0  0  0  0  0  0  0
   40.8315   10.8826   15.5364 C   0  0  0  0  0  0  0  0  0  0  0  0
   39.2962    9.0863   15.0925 N   0  0  0  0  0  0  0  0  0  0  0  0
   39.0693    7.6858   14.7569 C   0  0  0  0  0  0  0  0  0  0  0  0
   37.6850    7.4593   14.1478 C   0  0  0  0  0  0  0  0  0  0  0  0
   37.7944    6.1116   13.4267 C   0  0  0  0  0  0  0  0  0  0  0  0
   39.2789    5.9376   13.0696 C   0  0  0  0  0  0  0  0  0  0  0  0
   40.0082    7.1425   13.6741 C   0  0  0  0  0  0  0  0  0  0  0  0
   41.4255   17.4863   14.9515 H   0  0  0  0  0  0  0  0  0  0  0  0
   40.4324   16.0974   14.5419 H   0  0  0  0  0  0  0  0  0  0  0  0
   43.8582   10.9030   17.1010 H   0  0  0  0  0  0  0  0  0  0  0  0
   43.2602    8.5317   17.4242 H   0  0  0  0  0  0  0  0  0  0  0  0
   41.1583    7.6220   16.5043 H   0  0  0  0  0  0  0  0  0  0  0  0
   40.1365   11.5282   15.0314 H   0  0  0  0  0  0  0  0  0  0  0  0
   38.7727    9.7739   14.5596 H   0  0  0  0  0  0  0  0  0  0  0  0
   39.1541    7.0730   15.6555 H   0  0  0  0  0  0  0  0  0  0  0  0
   36.8905    7.4719   14.8947 H   0  0  0  0  0  0  0  0  0  0  0  0
   37.4652    8.2396   13.4168 H   0  0  0  0  0  0  0  0  0  0  0  0
   37.4833    5.3070   14.0942 H   0  0  0  0  0  0  0  0  0  0  0  0
   37.1528    6.0721   12.5460 H   0  0  0  0  0  0  0  0  0  0  0  0
   39.6613    5.0096   13.4970 H   0  0  0  0  0  0  0  0  0  0  0  0
   39.4355    5.8863   11.9914 H   0  0  0  0  0  0  0  0  0  0  0  0
   40.1640    7.8864   12.8940 H   0  0  0  0  0  0  0  0  0  0  0  0
   40.9838    6.8722   14.0715 H   0  0  0  0  0  0  0  0  0  0  0  0
  1  2  2  0
  2  3  1  0
  2  4  1  0
  4  5  1  0
  4 27  1  0
  4 28  1  0
  5  6  1  0
  6 11  2  0
  6  7  1  0
  7  8  1  0
  7  9  2  0
  9 10  1  0
  9 15  1  0
 10 11  1  0
 11 12  1  0
 12 13  2  0
 12 14  1  0
 15 20  1  0
 15 16  2  0
 16 17  1  0
 16 29  1  0
 17 18  2  0
 17 30  1  0
 18 19  1  0
 18 31  1  0
 19 20  2  0
 19 21  1  0
 20 32  1  0
 21 22  1  0
 21 33  1  0
 22 26  1  0
 22 23  1  0
 22 34  1  0
 23 24  1  0
 23 35  1  0
 23 36  1  0
 24 25  1  0
 24 37  1  0
 24 38  1  0
 25 26  1  0
 25 39  1  0
 25 40  1  0
 26 41  1  0
 26 42  1  0
M  CHG  2   3  -1  14  -1
M  END
>  <s_m_entry_id>  (1) 
453

>  <i_f3d_flags>  (1) 
0

>  <r_epik_Ionization_Penalty>  (1) 
  0.0029

>  <r_epik_State_Penalty>  (1) 
  0.0020

>  <i_epik_Tot_Q>  (1) 
-2

>  <s_m_job_name>  (1) 
glide-dock_SP_ptp1b_no_cons

>  <r_i_docking_score>  (1) 
-8.44336057600271

>  <r_i_glide_gscore>  (1) 
-8.44536057600271

>  <r_i_glide_emodel>  (1) 
-108.01200136792

>  <index_string>  (1) 
0:0:0

$$$$
