13:0:0
     RDKit          3D

 60 64  0  0  1  0  0  0  0  0999 V2000
   -4.5354   -3.2028   15.8103 C   0  0  0  0  0  0  0  0  0  0  0  0
   -3.9379   -2.2774   14.9125 O   0  0  0  0  0  0  0  0  0  0  0  0
   -2.5694   -2.1081   14.9741 C   0  0  0  0  0  0  0  0  0  0  0  0
   -1.7157   -2.9065   15.7714 C   0  0  0  0  0  0  0  0  0  0  0  0
   -0.3364   -2.6458   15.8183 C   0  0  0  0  0  0  0  0  0  0  0  0
    0.2290   -1.5874   15.0810 C   0  0  0  0  0  0  0  0  0  0  0  0
    1.6046   -1.3663   15.2699 N   0  0  0  0  0  0  0  0  0  0  0  0
    2.5156   -0.4415   14.7309 C   0  0  0  0  0  0  0  0  0  0  0  0
    2.1689    0.3729   13.7682 N   0  0  0  0  0  0  0  0  0  0  0  0
    3.0920    1.2698   13.2640 C   0  0  0  0  0  0  0  0  0  0  0  0
    4.4043    1.2899   13.6916 C   0  0  0  0  0  0  0  0  0  0  0  0
    4.7501    0.4741   14.7169 N   0  0  0  0  0  0  0  0  0  0  0  0
    5.9008    0.3743   15.4742 C   0  0  0  0  0  0  0  0  0  0  0  0
    5.6004   -0.4980   16.4889 C   0  0  0  0  0  0  0  0  0  0  0  0
    4.3519   -1.0585   16.3258 N   0  0  0  0  0  0  0  0  0  0  0  0
    3.8193   -0.4165   15.2918 C   0  0  0  0  0  0  0  0  0  0  0  0
    2.6135    2.2430   12.2451 C   0  0  0  0  0  0  0  0  0  0  0  0
    3.5281    2.8059   11.3191 C   0  0  0  0  0  0  0  0  0  0  0  0
    3.1055    3.6844   10.3078 C   0  0  0  0  0  0  0  0  0  0  0  0
    1.7455    4.0042   10.1856 C   0  0  0  0  0  0  0  0  0  0  0  0
    0.8081    3.4745   11.0952 C   0  0  0  0  0  0  0  0  0  0  0  0
    1.2499    2.6271   12.1428 C   0  0  0  0  0  0  0  0  0  0  0  0
   -0.6493    3.6988   10.8314 C   0  0  0  0  0  0  0  0  0  0  0  0
   -1.0984    3.4662    9.7086 O   0  0  0  0  0  0  0  0  0  0  0  0
   -1.3765    4.1858   11.8515 N   0  0  0  0  0  0  0  0  0  0  0  0
   -2.7556    4.5256   11.7908 C   0  0  0  0  0  0  0  0  0  0  0  0
   -3.7005    3.7102   11.1227 C   0  0  0  0  0  0  0  0  0  0  0  0
   -5.0599    4.0733   11.0924 C   0  0  0  0  0  0  0  0  0  0  0  0
   -5.4880    5.2477   11.7411 C   0  0  0  0  0  0  0  0  0  0  0  0
   -4.5539    6.0762   12.3961 C   0  0  0  0  0  0  0  0  0  0  0  0
   -3.1913    5.7062   12.4281 C   0  0  0  0  0  0  0  0  0  0  0  0
   -5.0000    7.3614   13.0184 C   0  0  0  0  0  0  0  0  0  0  0  0
   -5.9704    7.3520   13.8093 O   0  0  0  0  0  0  0  0  0  0  0  0
   -4.3742    8.4038   12.7286 O   0  0  0  0  0  0  0  0  0  0  0  0
   -0.6173   -0.8161   14.2515 C   0  0  0  0  0  0  0  0  0  0  0  0
   -2.0116   -1.0734   14.1918 C   0  0  0  0  0  0  0  0  0  0  0  0
   -2.8866   -0.3411   13.4173 O   0  0  0  0  0  0  0  0  0  0  0  0
   -2.3384    0.4976   12.4135 C   0  0  0  0  0  0  0  0  0  0  0  0
   -5.6192   -3.1675   15.6982 H   0  0  0  0  0  0  0  0  0  0  0  0
   -4.2162   -4.2241   15.6005 H   0  0  0  0  0  0  0  0  0  0  0  0
   -4.3041   -2.9581   16.8490 H   0  0  0  0  0  0  0  0  0  0  0  0
   -2.0943   -3.7144   16.3785 H   0  0  0  0  0  0  0  0  0  0  0  0
    0.2857   -3.2545   16.4606 H   0  0  0  0  0  0  0  0  0  0  0  0
    2.0259   -1.9479   15.9837 H   0  0  0  0  0  0  0  0  0  0  0  0
    5.1588    1.9894   13.3516 H   0  0  0  0  0  0  0  0  0  0  0  0
    6.7564    0.9986   15.2656 H   0  0  0  0  0  0  0  0  0  0  0  0
    6.1323   -0.7420   17.3831 H   0  0  0  0  0  0  0  0  0  0  0  0
    4.5742    2.5448   11.3468 H   0  0  0  0  0  0  0  0  0  0  0  0
    3.8204    4.0842    9.6043 H   0  0  0  0  0  0  0  0  0  0  0  0
    1.4186    4.6378    9.3733 H   0  0  0  0  0  0  0  0  0  0  0  0
    0.5257    2.2040   12.8232 H   0  0  0  0  0  0  0  0  0  0  0  0
   -0.8686    4.4809   12.6723 H   0  0  0  0  0  0  0  0  0  0  0  0
   -3.3912    2.8075   10.6176 H   0  0  0  0  0  0  0  0  0  0  0  0
   -5.7741    3.4543   10.5705 H   0  0  0  0  0  0  0  0  0  0  0  0
   -6.5306    5.5315   11.7115 H   0  0  0  0  0  0  0  0  0  0  0  0
   -2.4795    6.3464   12.9305 H   0  0  0  0  0  0  0  0  0  0  0  0
   -0.2103   -0.0003   13.6823 H   0  0  0  0  0  0  0  0  0  0  0  0
   -3.1457    0.8237   11.7630 H   0  0  0  0  0  0  0  0  0  0  0  0
   -1.8712    1.3839   12.8447 H   0  0  0  0  0  0  0  0  0  0  0  0
   -1.6151   -0.0325   11.7901 H   0  0  0  0  0  0  0  0  0  0  0  0
  1  2  1  0
  1 39  1  0
  1 40  1  0
  1 41  1  0
  2  3  1  0
  3  4  2  0
  3 36  1  0
  4  5  1  0
  4 42  1  0
  5  6  2  0
  5 43  1  0
  6  7  1  0
  6 35  1  0
  7  8  1  0
  7 44  1  0
  8  9  2  0
  8 16  1  0
  9 10  1  0
 10 11  2  0
 10 17  1  0
 11 12  1  0
 11 45  1  0
 12 13  1  0
 12 16  1  0
 13 14  2  0
 13 46  1  0
 14 15  1  0
 14 47  1  0
 15 16  2  0
 17 18  2  0
 17 22  1  0
 18 19  1  0
 18 48  1  0
 19 20  2  0
 19 49  1  0
 20 21  1  0
 20 50  1  0
 21 22  2  0
 21 23  1  0
 22 51  1  0
 23 24  2  0
 23 25  1  0
 25 26  1  0
 25 52  1  0
 26 27  2  0
 26 31  1  0
 27 28  1  0
 27 53  1  0
 28 29  2  0
 28 54  1  0
 29 30  1  0
 29 55  1  0
 30 31  2  0
 30 32  1  0
 31 56  1  0
 32 33  2  0
 32 34  1  0
 35 36  2  0
 35 57  1  0
 36 37  1  0
 37 38  1  0
 38 58  1  0
 38 59  1  0
 38 60  1  0
M  CHG  1  34  -1
M  END
>  <s_m_entry_id>  (1) 
1001

>  <IC50[nM]>  (1) 
8.9

>  <s_m_Source_Path>  (1) 
/projects/mai/users/kmzp800_harry/pmx_colab/docking_jobs/syk

>  <s_m_Source_File>  (1) 
tnks2_lig.sdf

>  <i_m_Source_File_Index>  (1) 
14

>  <s_m_job_name>  (1) 
glide-dock_SP_tnks2_core_const

>  <r_i_docking_score>  (1) 
-7.8267515534424

>  <r_i_glide_gscore>  (1) 
-7.8267515534424

>  <r_i_glide_emodel>  (1) 
-68.6092832045499

>  <index_string>  (1) 
13:0:0

$$$$
