2:0:0
     RDKit          3D

 42 44  0  0  1  0  0  0  0  0999 V2000
   39.4642   17.8855   12.8339 O   0  0  0  0  0  0  0  0  0  0  0  0
   40.5861   17.3315   12.7814 C   0  0  0  0  0  0  0  0  0  0  0  0
   41.4048   17.4856   11.8428 O   0  0  0  0  0  0  0  0  0  0  0  0
   40.9536   16.4123   13.9562 C   0  0  0  0  0  0  0  0  0  0  0  0
   42.1925   15.7425   13.7380 O   0  0  0  0  0  0  0  0  0  0  0  0
   42.5577   14.9238   14.7540 C   0  0  0  0  0  0  0  0  0  0  0  0
   42.1561   13.5747   14.9064 C   0  0  0  0  0  0  0  0  0  0  0  0
   40.9827   12.7715   13.6813 Br  0  0  0  0  0  0  0  0  0  0  0  0
   42.6258   12.9199   16.0111 C   0  0  0  0  0  0  0  0  0  0  0  0
   43.6483   13.9807   16.9213 S   0  0  0  0  0  0  0  0  0  0  0  0
   43.3738   15.2902   15.7890 C   0  0  0  0  0  0  0  0  0  0  0  0
   44.0046   16.5614   16.1089 C   0  0  0  0  0  0  0  0  0  0  0  0
   44.5840   16.6858   17.2062 O   0  0  0  0  0  0  0  0  0  0  0  0
   43.9427   17.5032   15.2934 O   0  0  0  0  0  0  0  0  0  0  0  0
   42.3712   11.5659   16.4840 C   0  0  0  0  0  0  0  0  0  0  0  0
   43.4087   10.7802   17.0216 C   0  0  0  0  0  0  0  0  0  0  0  0
   43.1602    9.4637   17.4440 C   0  0  0  0  0  0  0  0  0  0  0  0
   41.8692    8.9158   17.3267 C   0  0  0  0  0  0  0  0  0  0  0  0
   40.8165    9.6839   16.7753 C   0  0  0  0  0  0  0  0  0  0  0  0
   41.0798   11.0080   16.3870 C   0  0  0  0  0  0  0  0  0  0  0  0
   39.5049    9.2346   16.5613 N   0  0  0  0  0  0  0  0  0  0  0  0
   38.6722    7.7651   16.9633 S   0  0  0  0  0  0  0  0  0  0  0  0
   39.5761    6.9348   17.7719 O   0  0  0  0  0  0  0  0  0  0  0  0
   37.3666    8.2001   17.4865 O   0  0  0  0  0  0  0  0  0  0  0  0
   38.4305    6.9897   15.3657 C   0  0  0  0  0  0  0  0  0  0  0  0
   39.4719    6.2416   14.7773 C   0  0  0  0  0  0  0  0  0  0  0  0
   39.2580    5.6051   13.5365 C   0  0  0  0  0  0  0  0  0  0  0  0
   38.0068    5.7153   12.8939 C   0  0  0  0  0  0  0  0  0  0  0  0
   37.7839    5.0864   11.7153 F   0  0  0  0  0  0  0  0  0  0  0  0
   36.9777    6.4790   13.4772 C   0  0  0  0  0  0  0  0  0  0  0  0
   37.1875    7.1216   14.7134 C   0  0  0  0  0  0  0  0  0  0  0  0
   40.9846   17.0016   14.8791 H   0  0  0  0  0  0  0  0  0  0  0  0
   40.1637   15.6660   14.0746 H   0  0  0  0  0  0  0  0  0  0  0  0
   44.4071   11.1841   17.0991 H   0  0  0  0  0  0  0  0  0  0  0  0
   43.9644    8.8660   17.8484 H   0  0  0  0  0  0  0  0  0  0  0  0
   41.7226    7.8976   17.6469 H   0  0  0  0  0  0  0  0  0  0  0  0
   40.2680   11.6063   16.0012 H   0  0  0  0  0  0  0  0  0  0  0  0
   38.9566    9.8589   15.9874 H   0  0  0  0  0  0  0  0  0  0  0  0
   40.4261    6.1480   15.2762 H   0  0  0  0  0  0  0  0  0  0  0  0
   40.0503    5.0261   13.0829 H   0  0  0  0  0  0  0  0  0  0  0  0
   36.0247    6.5545   12.9738 H   0  0  0  0  0  0  0  0  0  0  0  0
   36.3890    7.6929   15.1628 H   0  0  0  0  0  0  0  0  0  0  0  0
  1  2  2  0
  2  3  1  0
  2  4  1  0
  4  5  1  0
  4 32  1  0
  4 33  1  0
  5  6  1  0
  6 11  2  0
  6  7  1  0
  7  8  1  0
  7  9  2  0
  9 10  1  0
  9 15  1  0
 10 11  1  0
 11 12  1  0
 12 13  2  0
 12 14  1  0
 15 20  1  0
 15 16  2  0
 16 17  1  0
 16 34  1  0
 17 18  2  0
 17 35  1  0
 18 19  1  0
 18 36  1  0
 19 20  2  0
 19 21  1  0
 20 37  1  0
 21 22  1  0
 21 38  1  0
 22 23  2  0
 22 24  2  0
 22 25  1  0
 25 31  1  0
 25 26  2  0
 26 27  1  0
 26 39  1  0
 27 28  2  0
 27 40  1  0
 28 29  1  0
 28 30  1  0
 30 31  2  0
 30 41  1  0
 31 42  1  0
M  CHG  2   3  -1  14  -1
M  END
>  <s_m_entry_id>  (1) 
477

>  <i_f3d_flags>  (1) 
0

>  <r_epik_Ionization_Penalty>  (1) 
  0.0488

>  <r_epik_State_Penalty>  (1) 
  0.0416

>  <i_epik_Tot_Q>  (1) 
-2

>  <s_m_job_name>  (1) 
glide-dock_SP_ptp1b_core_cons

>  <r_i_docking_score>  (1) 
-7.37232455674927

>  <r_i_glide_gscore>  (1) 
-7.41392455674927

>  <r_i_glide_emodel>  (1) 
-101.647207024331

>  <index_string>  (1) 
2:0:0

$$$$
