10:0:0
     RDKit          3D

 52 55  0  0  1  0  0  0  0  0999 V2000
    5.5460   -0.6340   16.3080 C   0  0  0  0  0  0  0  0  0  0  0  0
    4.2620   -1.0540   16.1720 N   0  0  0  0  0  0  0  0  0  0  0  0
    3.7860   -0.2950   15.1700 C   0  0  0  0  0  0  0  0  0  0  0  0
    2.5010   -0.3320   14.6340 C   0  0  0  0  0  0  0  0  0  0  0  0
    1.5260   -1.2480   15.1530 N   0  0  0  0  0  0  0  0  0  0  0  0
    2.2150    0.5270   13.6110 N   0  0  0  0  0  0  0  0  0  0  0  0
    3.1460    1.4050   13.1140 C   0  0  0  0  0  0  0  0  0  0  0  0
    4.4380    1.4200   13.6750 C   0  0  0  0  0  0  0  0  0  0  0  0
    4.6930    0.5570   14.6860 N   0  0  0  0  0  0  0  0  0  0  0  0
    5.8210    0.3710   15.3840 C   0  0  0  0  0  0  0  0  0  0  0  0
    0.1690   -1.4160   14.7220 C   0  0  0  0  0  0  0  0  0  0  0  0
   -0.4650   -2.6350   14.9770 C   0  0  0  0  0  0  0  0  0  0  0  0
   -1.7860   -2.8420   14.5750 C   0  0  0  0  0  0  0  0  0  0  0  0
   -2.4940   -1.8290   13.9090 C   0  0  0  0  0  0  0  0  0  0  0  0
   -1.8660   -0.6030   13.6480 C   0  0  0  0  0  0  0  0  0  0  0  0
   -0.5360   -0.4040   14.0570 C   0  0  0  0  0  0  0  0  0  0  0  0
   -3.8190   -2.0210   13.4990 O   0  0  0  0  0  0  0  0  0  0  0  0
   -4.2580   -3.2010   12.8420 C   0  0  0  0  0  0  0  0  0  0  0  0
   -2.5810    0.4000   12.9830 O   0  0  0  0  0  0  0  0  0  0  0  0
   -1.9870    1.2620   12.0220 C   0  0  0  0  0  0  0  0  0  0  0  0
    2.7910    2.3150   12.0060 C   0  0  0  0  0  0  0  0  0  0  0  0
    3.7640    2.7160   11.0850 C   0  0  0  0  0  0  0  0  0  0  0  0
    3.4360    3.5730   10.0360 C   0  0  0  0  0  0  0  0  0  0  0  0
    2.1240    4.0520    9.8830 C   0  0  0  0  0  0  0  0  0  0  0  0
    1.1300    3.6540   10.8070 C   0  0  0  0  0  0  0  0  0  0  0  0
    1.4810    2.7910   11.8560 C   0  0  0  0  0  0  0  0  0  0  0  0
   -0.2760    4.1160   10.7130 C   0  0  0  0  0  0  0  0  0  0  0  0
   -0.8410    4.6790   11.6880 O   0  0  0  0  0  0  0  0  0  0  0  0
   -1.0120    3.9290    9.5080 N   0  0  0  0  0  0  0  0  0  0  0  0
    1.8050    4.9140    8.8270 O   0  0  0  0  0  0  0  0  0  0  0  0
    2.0090    6.3190    8.8870 C   0  0  0  0  0  0  0  0  0  0  0  0
    6.2643   -1.0298   17.0411 H   0  0  0  0  0  0  0  0  0  0  0  0
    1.8371   -1.8552   15.9246 H   0  0  0  0  0  0  0  0  0  0  0  0
    5.2119    2.1084   13.3047 H   0  0  0  0  0  0  0  0  0  0  0  0
    6.7737    0.9051   15.2535 H   0  0  0  0  0  0  0  0  0  0  0  0
    0.0800   -3.4363   15.4976 H   0  0  0  0  0  0  0  0  0  0  0  0
   -2.2753   -3.8053   14.7815 H   0  0  0  0  0  0  0  0  0  0  0  0
   -0.0427    0.5577   13.8526 H   0  0  0  0  0  0  0  0  0  0  0  0
   -4.5386   -3.9553   13.5918 H   0  0  0  0  0  0  0  0  0  0  0  0
   -5.1295   -2.9677   12.2127 H   0  0  0  0  0  0  0  0  0  0  0  0
   -3.4459   -3.5940   12.2127 H   0  0  0  0  0  0  0  0  0  0  0  0
   -1.4358    2.0619   12.5380 H   0  0  0  0  0  0  0  0  0  0  0  0
   -1.2932    0.6860   11.3920 H   0  0  0  0  0  0  0  0  0  0  0  0
   -2.7723    1.7053   11.3920 H   0  0  0  0  0  0  0  0  0  0  0  0
    4.7968    2.3520   11.1894 H   0  0  0  0  0  0  0  0  0  0  0  0
    4.2131    3.8779    9.3197 H   0  0  0  0  0  0  0  0  0  0  0  0
    0.7106    2.4808   12.5773 H   0  0  0  0  0  0  0  0  0  0  0  0
   -1.9884    4.2509    9.4457 H   0  0  0  0  0  0  0  0  0  0  0  0
   -0.5678    3.4718    8.6989 H   0  0  0  0  0  0  0  0  0  0  0  0
    2.0553    6.6382    9.9386 H   0  0  0  0  0  0  0  0  0  0  0  0
    2.9536    6.5742    8.3844 H   0  0  0  0  0  0  0  0  0  0  0  0
    1.1760    6.8323    8.3844 H   0  0  0  0  0  0  0  0  0  0  0  0
  1  2  1  0
  1 10  2  0
  2  3  2  0
  3  4  1  0
  3  9  1  0
  4  5  1  0
  4  6  2  0
  5 11  1  0
  6  7  1  0
  7  8  2  0
  7 21  1  0
  8  9  1  0
  9 10  1  0
 11 12  2  0
 11 16  1  0
 12 13  1  0
 13 14  2  0
 14 15  1  0
 14 17  1  0
 15 16  2  0
 15 19  1  0
 17 18  1  0
 19 20  1  0
 21 22  2  0
 21 26  1  0
 22 23  1  0
 23 24  2  0
 24 25  1  0
 24 30  1  0
 25 26  2  0
 25 27  1  0
 27 28  2  0
 27 29  1  0
 30 31  1  0
  1 32  1  0
  5 33  1  0
  8 34  1  0
 10 35  1  0
 12 36  1  0
 13 37  1  0
 16 38  1  0
 18 39  1  0
 18 40  1  0
 18 41  1  0
 20 42  1  0
 20 43  1  0
 20 44  1  0
 22 45  1  0
 23 46  1  0
 26 47  1  0
 29 48  1  0
 29 49  1  0
 31 50  1  0
 31 51  1  0
 31 52  1  0
M  END
>  <s_m_entry_id>  (1) 
468

>  <MODEL>  (1) 
1

>  <REMARK>  (1) 
 VINA RESULT:   -12.624      0.000      0.000
 INTER + INTRA:         -13.219
 INTER:                 -12.294
 INTRA:                  -0.924
 UNBOUND:                 3.833
  Name = /scratch/kmzp800/tmpf6tpps21/tmp_hi6f6rb.pdb
  9 active torsions:
  status: ('A' for Active; 'I' for Inactive)
    1  A    between atoms: N2_5  and  C4_6
    2  A    between atoms: C7_9  and  O1_10
    3  A    between atoms: O1_10  and  C8_11
    4  A    between atoms: C9_12  and  O2_13
    5  A    between atoms: O2_13  and  C10_14
    6  A    between atoms: C12_17  and  C13_18
    7  A    between atoms: C16_21  and  O3_22
    8  A    between atoms: O3_22  and  C17_23
    9  A    between atoms: C18_24  and  C19_25
                            x       y       z     vdW  Elec       q    Type
                         _______ _______ _______ _____ _____    ______ ____

>  <TORSDO>  (1) 
F 6

>  <grid_id>  (1) 
syk-prepared

>  <grid_path>  (1) 
syk_vina.pdbqt

>  <grid_filename>  (1) 
syk_vina.pdbqt

>  <docking_score>  (1) 
-12.624

>  <compound_name>  (1) 
CHEMBL3265010

>  <index_string>  (1) 
10:0:0

>  <s_m_Source_Path>  (1) 
/projects/mai/users/kmzp800_harry/pmx_colab/docking_jobs/syk/vina_prep/output

>  <s_m_Source_File>  (1) 
ptp1b_docked_conformers.sdf

>  <i_m_Source_File_Index>  (1) 
292

$$$$
