9:0:0
     RDKit          3D

 50 54  0  0  1  0  0  0  0  0999 V2000
    5.5170   -0.6700   16.2580 C   0  0  0  0  0  0  0  0  0  0  0  0
    4.2160   -1.0490   16.1860 N   0  0  0  0  0  0  0  0  0  0  0  0
    3.7220   -0.2970   15.1880 C   0  0  0  0  0  0  0  0  0  0  0  0
    2.4160   -0.3050   14.7050 C   0  0  0  0  0  0  0  0  0  0  0  0
    1.4270   -1.1620   15.2920 N   0  0  0  0  0  0  0  0  0  0  0  0
    2.1140    0.5490   13.6820 N   0  0  0  0  0  0  0  0  0  0  0  0
    3.0480    1.3850   13.1260 C   0  0  0  0  0  0  0  0  0  0  0  0
    4.3640    1.3660   13.6300 C   0  0  0  0  0  0  0  0  0  0  0  0
    4.6340    0.5140   14.6470 N   0  0  0  0  0  0  0  0  0  0  0  0
    5.7850    0.3060   15.3020 C   0  0  0  0  0  0  0  0  0  0  0  0
    2.6690    2.2920   12.0240 C   0  0  0  0  0  0  0  0  0  0  0  0
    3.6000    2.6550   11.0360 C   0  0  0  0  0  0  0  0  0  0  0  0
    3.2340    3.5170    9.9970 C   0  0  0  0  0  0  0  0  0  0  0  0
    1.9330    4.0200    9.9330 C   0  0  0  0  0  0  0  0  0  0  0  0
    1.0010    3.6710   10.9200 C   0  0  0  0  0  0  0  0  0  0  0  0
    1.3680    2.8140   11.9600 C   0  0  0  0  0  0  0  0  0  0  0  0
   -0.3080    4.2390   10.8800 N   0  0  0  0  0  0  0  0  0  0  0  0
   -0.6910    5.0720    9.7840 C   0  0  0  0  0  0  0  0  0  0  0  0
   -1.8050    5.6540    9.7980 O   0  0  0  0  0  0  0  0  0  0  0  0
    0.2020    5.1870    8.5830 C   0  0  0  0  0  0  0  0  0  0  0  0
    1.5660    4.8910    8.9010 O   0  0  0  0  0  0  0  0  0  0  0  0
    0.0920   -1.3850   14.8210 C   0  0  0  0  0  0  0  0  0  0  0  0
   -0.5140   -2.6180   15.0760 C   0  0  0  0  0  0  0  0  0  0  0  0
   -1.8070   -2.8770   14.6190 C   0  0  0  0  0  0  0  0  0  0  0  0
   -2.5140   -1.9060   13.8910 C   0  0  0  0  0  0  0  0  0  0  0  0
   -1.9090   -0.6690   13.6210 C   0  0  0  0  0  0  0  0  0  0  0  0
   -0.6090   -0.4160   14.0890 C   0  0  0  0  0  0  0  0  0  0  0  0
   -3.8100   -2.1500   13.4260 O   0  0  0  0  0  0  0  0  0  0  0  0
   -4.1970   -3.3840   12.8380 C   0  0  0  0  0  0  0  0  0  0  0  0
   -2.6160    0.2900   12.8870 O   0  0  0  0  0  0  0  0  0  0  0  0
   -1.9740    1.2560   12.0670 C   0  0  0  0  0  0  0  0  0  0  0  0
    6.2528   -1.0750   16.9683 H   0  0  0  0  0  0  0  0  0  0  0  0
    1.7060   -1.6714   16.1426 H   0  0  0  0  0  0  0  0  0  0  0  0
    5.1437    2.0198   13.2122 H   0  0  0  0  0  0  0  0  0  0  0  0
    6.7478    0.8060   15.1206 H   0  0  0  0  0  0  0  0  0  0  0  0
    4.6249    2.2580   11.0800 H   0  0  0  0  0  0  0  0  0  0  0  0
    3.9710    3.7986    9.2305 H   0  0  0  0  0  0  0  0  0  0  0  0
    0.6329    2.5467   12.7334 H   0  0  0  0  0  0  0  0  0  0  0  0
   -0.9759    4.0485   11.6406 H   0  0  0  0  0  0  0  0  0  0  0  0
   -0.1447    4.4817    7.8133 H   0  0  0  0  0  0  0  0  0  0  0  0
    0.1541    6.2246    8.2210 H   0  0  0  0  0  0  0  0  0  0  0  0
    0.0312   -3.3890   15.6402 H   0  0  0  0  0  0  0  0  0  0  0  0
   -2.2761   -3.8492   14.8306 H   0  0  0  0  0  0  0  0  0  0  0  0
   -0.1351    0.5541   13.8787 H   0  0  0  0  0  0  0  0  0  0  0  0
   -4.4253   -4.1121   13.6303 H   0  0  0  0  0  0  0  0  0  0  0  0
   -5.0896   -3.2289   12.2142 H   0  0  0  0  0  0  0  0  0  0  0  0
   -3.3757   -3.7665   12.2142 H   0  0  0  0  0  0  0  0  0  0  0  0
   -1.4769    2.0040   12.7022 H   0  0  0  0  0  0  0  0  0  0  0  0
   -1.2260    0.7589   11.4319 H   0  0  0  0  0  0  0  0  0  0  0  0
   -2.7220    1.7532   11.4319 H   0  0  0  0  0  0  0  0  0  0  0  0
  1  2  1  0
  1 10  2  0
  2  3  2  0
  3  4  1  0
  3  9  1  0
  4  5  1  0
  4  6  2  0
  5 22  1  0
  6  7  1  0
  7  8  2  0
  7 11  1  0
  8  9  1  0
  9 10  1  0
 11 12  2  0
 11 16  1  0
 12 13  1  0
 13 14  2  0
 14 15  1  0
 14 21  1  0
 15 16  2  0
 15 17  1  0
 17 18  1  0
 18 19  2  0
 18 20  1  0
 20 21  1  0
 22 23  2  0
 22 27  1  0
 23 24  1  0
 24 25  2  0
 25 26  1  0
 25 28  1  0
 26 27  2  0
 26 30  1  0
 28 29  1  0
 30 31  1  0
  1 32  1  0
  5 33  1  0
  8 34  1  0
 10 35  1  0
 12 36  1  0
 13 37  1  0
 16 38  1  0
 17 39  1  0
 20 40  1  0
 20 41  1  0
 23 42  1  0
 24 43  1  0
 27 44  1  0
 29 45  1  0
 29 46  1  0
 29 47  1  0
 31 48  1  0
 31 49  1  0
 31 50  1  0
M  END
>  <s_m_entry_id>  (1) 
10

>  <MODEL>  (1) 
1

>  <REMARK>  (1) 
 VINA RESULT:    -9.565      0.000      0.000
 INTER + INTRA:         -12.300
 INTER:                 -11.802
 INTRA:                  -0.498
 UNBOUND:                -0.498
  Name = /scratch/kmzp800/tmpvlesnc31/tmpspy7ahvg.pdb
  6 active torsions:
  status: ('A' for Active; 'I' for Inactive)
    1  A    between atoms: N2_5  and  C4_6
    2  A    between atoms: C7_9  and  O1_10
    3  A    between atoms: O1_10  and  C8_11
    4  A    between atoms: C9_12  and  O2_13
    5  A    between atoms: O2_13  and  C10_14
    6  A    between atoms: C12_17  and  C13_18
                            x       y       z     vdW  Elec       q    Type
                         _______ _______ _______ _____ _____    ______ ____

>  <TORSDO>  (1) 
F 4

>  <grid_id>  (1) 
syk-prepared

>  <grid_path>  (1) 
syk_vina.pdbqt

>  <grid_filename>  (1) 
syk_vina.pdbqt

>  <docking_score>  (1) 
-9.565

>  <compound_name>  (1) 
CHEMBL3265024

>  <index_string>  (1) 
9:0:0

>  <s_m_Source_Path>  (1) 
/projects/mai/users/kmzp800_harry/pmx_colab/docking_jobs/syk/vina_prep/output

>  <s_m_Source_File>  (1) 
ptp1b_docked_conformers.sdf

>  <i_m_Source_File_Index>  (1) 
10

$$$$
