6:0:0
     RDKit          3D

 48 51  0  0  1  0  0  0  0  0999 V2000
   33.4850   35.9920   20.0450 C   0  0  0  0  0  0  0  0  0  0  0  0
   33.6580   37.3670   20.1860 C   0  0  0  0  0  0  0  0  0  0  0  0
   33.4010   37.9760   21.4080 C   0  0  0  0  0  0  0  0  0  0  0  0
   33.5750   39.3460   21.5820 C   0  0  0  0  0  0  0  0  0  0  0  0
   33.3180   39.9100   22.7910 N   0  0  0  0  0  0  0  0  0  0  0  0
   32.8930   39.1590   23.8410 C   0  0  0  0  0  0  0  0  0  0  0  0
   32.6310   39.7930   25.0980 N   0  0  0  0  0  0  0  0  0  0  0  0
   32.7140   37.8180   23.6870 N   0  0  0  0  0  0  0  0  0  0  0  0
   32.9570   37.2050   22.4950 C   0  0  0  0  0  0  0  0  0  0  0  0
   32.7670   35.8570   22.3440 N   0  0  0  0  0  0  0  0  0  0  0  0
   32.2880   35.0650   23.4740 C   0  0  0  0  0  0  0  0  0  0  0  0
   33.0090   35.2430   21.1430 C   0  0  0  0  0  0  0  0  0  0  0  0
   32.7840   34.0080   21.0090 O   0  0  0  0  0  0  0  0  0  0  0  0
   32.2090   39.0990   26.3110 C   0  0  0  0  0  0  0  0  0  0  0  0
   33.4180   38.5340   27.0810 C   0  0  0  0  0  0  0  0  0  0  0  0
   33.5990   37.0260   26.9300 C   0  0  0  0  0  0  0  0  0  0  0  0
   32.1550   36.1970   27.5620 S   0  0  0  0  0  0  0  0  0  0  0  0
   32.2860   35.9970   29.0450 O   0  0  0  0  0  0  0  0  0  0  0  0
   31.9940   34.8670   26.8830 O   0  0  0  0  0  0  0  0  0  0  0  0
   30.7500   37.2330   27.2150 C   0  0  0  0  0  0  0  0  0  0  0  0
   31.0690   38.1100   26.0150 C   0  0  0  0  0  0  0  0  0  0  0  0
   33.7510   35.4130   18.7950 O   0  0  0  0  0  0  0  0  0  0  0  0
   37.3440   35.9120   18.1070 C   0  0  0  0  0  0  0  0  0  0  0  0
   36.1280   35.7710   18.7820 C   0  0  0  0  0  0  0  0  0  0  0  0
   34.9420   35.5580   18.0710 C   0  0  0  0  0  0  0  0  0  0  0  0
   34.9890   35.4560   16.6650 C   0  0  0  0  0  0  0  0  0  0  0  0
   33.8750   35.1790   15.9440 F   0  0  0  0  0  0  0  0  0  0  0  0
   36.2090   35.5960   15.9950 C   0  0  0  0  0  0  0  0  0  0  0  0
   37.3820   35.8320   16.7130 C   0  0  0  0  0  0  0  0  0  0  0  0
   38.5610   35.9700   16.0600 F   0  0  0  0  0  0  0  0  0  0  0  0
   33.9977   37.9699   19.3309 H   0  0  0  0  0  0  0  0  0  0  0  0
   33.9193   39.9697   20.7438 H   0  0  0  0  0  0  0  0  0  0  0  0
   32.7491   40.8149   25.1502 H   0  0  0  0  0  0  0  0  0  0  0  0
   32.5830   35.5527   24.4148 H   0  0  0  0  0  0  0  0  0  0  0  0
   31.1916   34.9877   23.4291 H   0  0  0  0  0  0  0  0  0  0  0  0
   32.7287   34.0581   23.4291 H   0  0  0  0  0  0  0  0  0  0  0  0
   31.7622   39.8170   27.0145 H   0  0  0  0  0  0  0  0  0  0  0  0
   34.3270   39.0305   26.7106 H   0  0  0  0  0  0  0  0  0  0  0  0
   33.2351   38.7279   28.1482 H   0  0  0  0  0  0  0  0  0  0  0  0
   33.7312   36.7759   25.8670 H   0  0  0  0  0  0  0  0  0  0  0  0
   34.4871   36.7021   27.4925 H   0  0  0  0  0  0  0  0  0  0  0  0
   29.8747   36.6054   26.9914 H   0  0  0  0  0  0  0  0  0  0  0  0
   30.5271   37.8634   28.0885 H   0  0  0  0  0  0  0  0  0  0  0  0
   30.1680   38.6784   25.7410 H   0  0  0  0  0  0  0  0  0  0  0  0
   31.3921   37.4554   25.1921 H   0  0  0  0  0  0  0  0  0  0  0  0
   38.2707   36.0859   18.6735 H   0  0  0  0  0  0  0  0  0  0  0  0
   36.1034   35.8279   19.8803 H   0  0  0  0  0  0  0  0  0  0  0  0
   36.2438   35.5198   14.8982 H   0  0  0  0  0  0  0  0  0  0  0  0
  1  2  2  0
  1 12  1  0
  1 22  1  0
  2  3  1  0
  2 31  1  0
  3  4  2  0
  3  9  1  0
  4  5  1  0
  4 32  1  0
  5  6  2  0
  6  7  1  0
  6  8  1  0
  7 14  1  0
  7 33  1  0
  8  9  2  0
  9 10  1  0
 10 11  1  0
 10 12  1  0
 11 34  1  0
 11 35  1  0
 11 36  1  0
 12 13  2  0
 14 15  1  0
 14 21  1  0
 14 37  1  0
 15 16  1  0
 15 38  1  0
 15 39  1  0
 16 17  1  0
 16 40  1  0
 16 41  1  0
 17 18  2  0
 17 19  2  0
 17 20  1  0
 20 21  1  0
 20 42  1  0
 20 43  1  0
 21 44  1  0
 21 45  1  0
 22 25  1  0
 23 24  2  0
 23 29  1  0
 23 46  1  0
 24 25  1  0
 24 47  1  0
 25 26  2  0
 26 27  1  0
 26 28  1  0
 28 29  2  0
 28 48  1  0
 29 30  1  0
M  END
>  <s_m_entry_id>  (1) 
1360

>  <MODEL>  (1) 
1

>  <REMARK>  (1) 
 VINA RESULT:    -9.305      0.000      0.000
 INTER + INTRA:         -11.056
 INTER:                 -10.937
 INTRA:                  -0.119
 UNBOUND:                -0.119
  Name = /scratch/kmzp800/tmpan3xnqd6/tmpj450sefj.pdb
  4 active torsions:
  status: ('A' for Active; 'I' for Inactive)
    1  A    between atoms: C3_3  and  O1_4
    2  A    between atoms: O1_4  and  C4_5
    3  A    between atoms: N2_11  and  C9_12
    4  A    between atoms: N4_22  and  C15_23
                            x       y       z     vdW  Elec       q    Type
                         _______ _______ _______ _____ _____    ______ ____

>  <TORSDO>  (1) 
F 3

>  <grid_id>  (1) 
p38-prepared

>  <grid_path>  (1) 
/projects/mai/users/kmzp800_harry/pmx_colab/docking_jobs/p38/vina_docking/input_files/p38_vina.pdbqt

>  <grid_filename>  (1) 
p38_vina.pdbqt

>  <docking_score>  (1) 
-9.305

>  <compound_name>  (1) 
lig_p38a_2gg

>  <index_string>  (1) 
6:0:0

>  <s_m_Source_Path>  (1) 
/projects/mai/users/kmzp800_harry/pmx_colab/docking_jobs/p38

>  <s_m_Source_File>  (1) 
p38_confs_vina_naive.sdf

>  <i_m_Source_File_Index>  (1) 
7

$$$$
