9:0:0
     RDKit          3D

 47 49  0  0  1  0  0  0  0  0999 V2000
  -15.2007  -19.2586  -25.9347 C   0  0  0  0  0  0  0  0  0  0  0  0
  -15.4473  -20.0790  -24.8155 C   0  0  0  0  0  0  0  0  0  0  0  0
  -14.7812  -19.8411  -27.1447 C   0  0  0  0  0  0  0  0  0  0  0  0
  -15.2223  -21.4609  -24.8982 C   0  0  0  0  0  0  0  0  0  0  0  0
  -14.5685  -21.2172  -27.2258 C   0  0  0  0  0  0  0  0  0  0  0  0
  -14.8483  -17.0196  -26.7592 N   0  0  0  0  0  0  0  0  0  0  0  0
  -14.7615  -22.0473  -26.1041 C   0  0  0  0  0  0  0  0  0  0  0  0
  -14.4098  -23.5352  -26.1944 C   0  0  0  0  0  0  0  0  0  0  0  0
  -15.0185  -15.6301  -26.7066 C   0  0  0  0  0  0  0  0  0  0  0  0
  -15.7343  -15.0140  -25.6548 C   0  0  0  0  0  0  0  0  0  0  0  0
  -15.2020  -12.8349  -26.6430 C   0  0  0  0  0  0  0  0  0  0  0  0
  -14.4893  -13.4552  -27.6599 C   0  0  0  0  0  0  0  0  0  0  0  0
  -15.8378  -13.5968  -25.6240 C   0  0  0  0  0  0  0  0  0  0  0  0
  -14.4371  -14.8421  -27.7198 C   0  0  0  0  0  0  0  0  0  0  0  0
  -16.3524  -15.9370  -24.6335 C   0  0  0  0  0  0  0  0  0  0  0  0
  -16.1089  -17.2426  -24.8132 N   0  0  0  0  0  0  0  0  0  0  0  0
  -15.3634  -17.7878  -25.8494 C   0  0  0  0  0  0  0  0  0  0  0  0
  -17.0347  -15.5719  -23.6884 O   0  0  0  0  0  0  0  0  0  0  0  0
  -15.6953  -24.3512  -25.9158 C   0  0  0  0  0  0  0  0  0  0  0  0
  -13.9870  -23.8528  -27.5360 O   0  0  0  0  0  0  0  0  0  0  0  0
  -13.2795  -23.7796  -25.1610 C   0  0  0  0  0  0  0  0  0  0  0  0
  -13.6836  -15.4288  -28.8803 C   0  0  0  0  0  0  0  0  0  0  0  0
  -15.2589  -11.4929  -26.7386 F   0  0  0  0  0  0  0  0  0  0  0  0
  -13.3001  -25.0729  -27.8099 C   0  0  0  0  0  0  0  0  0  0  0  0
  -11.7752  -24.8445  -27.8887 C   0  0  0  0  0  0  0  0  0  0  0  0
  -11.3886  -24.3683  -29.1622 O   0  0  0  0  0  0  0  0  0  0  0  0
  -15.7731  -19.6602  -23.8757 H   0  0  0  0  0  0  0  0  0  0  0  0
  -14.5875  -19.2356  -28.0188 H   0  0  0  0  0  0  0  0  0  0  0  0
  -15.3832  -22.0703  -24.0203 H   0  0  0  0  0  0  0  0  0  0  0  0
  -14.1974  -21.5727  -28.1674 H   0  0  0  0  0  0  0  0  0  0  0  0
  -14.0136  -12.8504  -28.4204 H   0  0  0  0  0  0  0  0  0  0  0  0
  -16.3934  -13.1072  -24.8352 H   0  0  0  0  0  0  0  0  0  0  0  0
  -16.5592  -17.8714  -24.1600 H   0  0  0  0  0  0  0  0  0  0  0  0
  -16.0296  -24.2311  -24.8850 H   0  0  0  0  0  0  0  0  0  0  0  0
  -16.5072  -24.0002  -26.5528 H   0  0  0  0  0  0  0  0  0  0  0  0
  -15.6203  -25.4201  -26.1005 H   0  0  0  0  0  0  0  0  0  0  0  0
  -13.6303  -23.6383  -24.1385 H   0  0  0  0  0  0  0  0  0  0  0  0
  -12.8478  -24.7725  -25.1997 H   0  0  0  0  0  0  0  0  0  0  0  0
  -12.4559  -23.0799  -25.3101 H   0  0  0  0  0  0  0  0  0  0  0  0
  -13.7527  -14.7866  -29.7597 H   0  0  0  0  0  0  0  0  0  0  0  0
  -12.6314  -15.5711  -28.6591 H   0  0  0  0  0  0  0  0  0  0  0  0
  -14.1142  -16.3863  -29.1343 H   0  0  0  0  0  0  0  0  0  0  0  0
  -13.6648  -25.4616  -28.7611 H   0  0  0  0  0  0  0  0  0  0  0  0
  -13.5394  -25.8354  -27.0686 H   0  0  0  0  0  0  0  0  0  0  0  0
  -11.2509  -25.7828  -27.7133 H   0  0  0  0  0  0  0  0  0  0  0  0
  -11.4278  -24.1520  -27.1276 H   0  0  0  0  0  0  0  0  0  0  0  0
  -11.6813  -24.9922  -29.8085 H   0  0  0  0  0  0  0  0  0  0  0  0
  1  2  2  0
  1  3  1  0
  1 17  1  0
  2  4  1  0
  2 27  1  0
  3  5  2  0
  3 28  1  0
  4  7  2  0
  4 29  1  0
  5  7  1  0
  5 30  1  0
  6  9  1  0
  6 17  2  0
  7  8  1  0
  8 19  1  0
  8 20  1  0
  8 21  1  0
  9 10  2  0
  9 14  1  0
 10 13  1  0
 10 15  1  0
 11 12  1  0
 11 13  2  0
 11 23  1  0
 12 14  2  0
 12 31  1  0
 13 32  1  0
 14 22  1  0
 15 16  1  0
 15 18  2  0
 16 17  1  0
 16 33  1  0
 19 34  1  0
 19 35  1  0
 19 36  1  0
 20 24  1  0
 21 37  1  0
 21 38  1  0
 21 39  1  0
 22 40  1  0
 22 41  1  0
 22 42  1  0
 24 25  1  0
 24 43  1  0
 24 44  1  0
 25 26  1  0
 25 45  1  0
 25 46  1  0
 26 47  1  0
M  END
>  <s_m_entry_id>  (1) 
451

>  <Name>  (1) 
5o

>  <IC50[nM]>  (1) 
1.5

>  <s_m_Source_Path>  (1) 
/projects/mai/users/kmzp800_harry/pmx_colab/docking_jobs/tnks2

>  <s_m_Source_File>  (1) 
tnks2_lig.sdf

>  <i_m_Source_File_Index>  (1) 
10

>  <s_m_job_name>  (1) 
glide-dock_SP_tnks2_core_const

>  <r_i_docking_score>  (1) 
-10.8254370590954

>  <r_i_glide_gscore>  (1) 
-10.8254370590954

>  <r_i_glide_emodel>  (1) 
-44.1108570529412

>  <index_string>  (1) 
9:0:0

$$$$
