20:0:0
     RDKit          3D

 46 50  0  0  1  0  0  0  0  0999 V2000
   -4.5233   -3.2230   15.4927 C   0  0  0  0  0  0  0  0  0  0  0  0
   -3.8806   -2.2541   14.6752 O   0  0  0  0  0  0  0  0  0  0  0  0
   -2.5251   -2.0669   14.8240 C   0  0  0  0  0  0  0  0  0  0  0  0
   -1.7358   -2.8246   15.7124 C   0  0  0  0  0  0  0  0  0  0  0  0
   -0.3631   -2.5857   15.8173 C   0  0  0  0  0  0  0  0  0  0  0  0
    0.2502   -1.5647   15.0746 C   0  0  0  0  0  0  0  0  0  0  0  0
    1.6205   -1.3525   15.2927 N   0  0  0  0  0  0  0  0  0  0  0  0
    2.5270   -0.4255   14.7290 C   0  0  0  0  0  0  0  0  0  0  0  0
    2.1889    0.3810   13.7578 N   0  0  0  0  0  0  0  0  0  0  0  0
    3.1151    1.2580   13.2236 C   0  0  0  0  0  0  0  0  0  0  0  0
    4.4152    1.2929   13.6831 C   0  0  0  0  0  0  0  0  0  0  0  0
    4.7513    0.4994   14.7325 N   0  0  0  0  0  0  0  0  0  0  0  0
    5.9037    0.3847   15.4845 C   0  0  0  0  0  0  0  0  0  0  0  0
    5.6182   -0.5019   16.4880 C   0  0  0  0  0  0  0  0  0  0  0  0
    4.3668   -1.0560   16.3315 N   0  0  0  0  0  0  0  0  0  0  0  0
    3.8315   -0.4079   15.3041 C   0  0  0  0  0  0  0  0  0  0  0  0
    2.6436    2.1644   12.1444 C   0  0  0  0  0  0  0  0  0  0  0  0
    3.5572    2.6626   11.1720 C   0  0  0  0  0  0  0  0  0  0  0  0
    3.1563    3.4894   10.1109 C   0  0  0  0  0  0  0  0  0  0  0  0
    1.7991    3.8540   10.0185 C   0  0  0  0  0  0  0  0  0  0  0  0
    1.1186    4.6261    9.0983 N   0  0  0  0  0  0  0  0  0  0  0  0
   -0.1312    4.6653    9.4474 N   0  0  0  0  0  0  0  0  0  0  0  0
   -0.2824    3.9494   10.5822 N   0  0  0  0  0  0  0  0  0  0  0  0
    0.8962    3.3851   11.0060 C   0  0  0  0  0  0  0  0  0  0  0  0
    1.2865    2.5507   12.0636 C   0  0  0  0  0  0  0  0  0  0  0  0
   -0.5341   -0.8079   14.1813 C   0  0  0  0  0  0  0  0  0  0  0  0
   -1.9176   -1.0548   14.0440 C   0  0  0  0  0  0  0  0  0  0  0  0
   -2.7316   -0.3161   13.2080 O   0  0  0  0  0  0  0  0  0  0  0  0
   -2.1782    0.7105   12.3905 C   0  0  0  0  0  0  0  0  0  0  0  0
   -5.5840   -3.2500   15.2448 H   0  0  0  0  0  0  0  0  0  0  0  0
   -4.4386   -2.9724   16.5513 H   0  0  0  0  0  0  0  0  0  0  0  0
   -4.1213   -4.2231   15.3240 H   0  0  0  0  0  0  0  0  0  0  0  0
   -2.1566   -3.5981   16.3286 H   0  0  0  0  0  0  0  0  0  0  0  0
    0.2201   -3.1962   16.4854 H   0  0  0  0  0  0  0  0  0  0  0  0
    2.0723   -2.0334   15.8968 H   0  0  0  0  0  0  0  0  0  0  0  0
    5.1962    1.9290   13.2840 H   0  0  0  0  0  0  0  0  0  0  0  0
    6.7737    0.9733   15.2257 H   0  0  0  0  0  0  0  0  0  0  0  0
    6.1938   -0.7838   17.3362 H   0  0  0  0  0  0  0  0  0  0  0  0
    4.5970    2.3946   11.2274 H   0  0  0  0  0  0  0  0  0  0  0  0
    3.8857    3.8298    9.3876 H   0  0  0  0  0  0  0  0  0  0  0  0
   -1.1867    3.8834   11.0172 H   0  0  0  0  0  0  0  0  0  0  0  0
    0.5726    2.1900   12.7956 H   0  0  0  0  0  0  0  0  0  0  0  0
   -0.0720   -0.0232   13.6133 H   0  0  0  0  0  0  0  0  0  0  0  0
   -2.9707    1.1215   11.7617 H   0  0  0  0  0  0  0  0  0  0  0  0
   -1.7791    1.5294   12.9889 H   0  0  0  0  0  0  0  0  0  0  0  0
   -1.4015    0.3292   11.7280 H   0  0  0  0  0  0  0  0  0  0  0  0
  1  2  1  0
  1 30  1  0
  1 31  1  0
  1 32  1  0
  2  3  1  0
  3  4  2  0
  3 27  1  0
  4  5  1  0
  4 33  1  0
  5  6  2  0
  5 34  1  0
  6  7  1  0
  6 26  1  0
  7  8  1  0
  7 35  1  0
  8  9  2  0
  8 16  1  0
  9 10  1  0
 10 11  2  0
 10 17  1  0
 11 12  1  0
 11 36  1  0
 12 13  1  0
 12 16  1  0
 13 14  2  0
 13 37  1  0
 14 15  1  0
 14 38  1  0
 15 16  2  0
 17 18  2  0
 17 25  1  0
 18 19  1  0
 18 39  1  0
 19 20  2  0
 19 40  1  0
 20 21  1  0
 20 24  1  0
 21 22  2  0
 22 23  1  0
 23 24  1  0
 23 41  1  0
 24 25  2  0
 25 42  1  0
 26 27  2  0
 26 43  1  0
 27 28  1  0
 28 29  1  0
 29 44  1  0
 29 45  1  0
 29 46  1  0
M  END
>  <s_m_entry_id>  (1) 
1113

>  <IC50[nM]>  (1) 
12.6

>  <s_m_Source_Path>  (1) 
/projects/mai/users/kmzp800_harry/pmx_colab/docking_jobs/syk

>  <s_m_Source_File>  (1) 
tnks2_lig.sdf

>  <i_m_Source_File_Index>  (1) 
22

>  <s_m_job_name>  (1) 
glide-dock_SP_syk_mcs

>  <r_i_docking_score>  (1) 
-6.66453696526732

>  <r_i_glide_gscore>  (1) 
-6.66453696526732

>  <r_i_glide_emodel>  (1) 
-46.0007942815269

>  <index_string>  (1) 
20:0:0

$$$$
