40:0:0
     RDKit          3D

 51 55  0  0  1  0  0  0  0  0999 V2000
    1.7450   -1.4590   15.4200 N   0  0  0  0  0  0  0  0  0  0  0  0
    2.5900   -0.4640   14.8240 C   0  0  0  0  0  0  0  0  0  0  0  0
    2.1580    0.3300   13.8010 N   0  0  0  0  0  0  0  0  0  0  0  0
    2.9580    1.2820   13.2240 C   0  0  0  0  0  0  0  0  0  0  0  0
    4.2730    1.4490   13.7040 C   0  0  0  0  0  0  0  0  0  0  0  0
    4.6750    0.6490   14.7190 N   0  0  0  0  0  0  0  0  0  0  0  0
    5.8560    0.6020   15.3500 C   0  0  0  0  0  0  0  0  0  0  0  0
    5.7430   -0.3980   16.3140 C   0  0  0  0  0  0  0  0  0  0  0  0
    4.5050   -0.9510   16.2680 N   0  0  0  0  0  0  0  0  0  0  0  0
    3.8940   -0.2780   15.2790 C   0  0  0  0  0  0  0  0  0  0  0  0
    2.4390    2.1140   12.1190 C   0  0  0  0  0  0  0  0  0  0  0  0
    3.3180    2.6540   11.1440 C   0  0  0  0  0  0  0  0  0  0  0  0
    2.8320    3.4470   10.0880 C   0  0  0  0  0  0  0  0  0  0  0  0
    1.4610    3.6750   10.0430 C   0  0  0  0  0  0  0  0  0  0  0  0
    0.6850    4.3890    9.1610 C   0  0  0  0  0  0  0  0  0  0  0  0
   -0.5970    4.2780    9.5930 N   0  0  0  0  0  0  0  0  0  0  0  0
   -0.6490    3.5320   10.6940 N   0  0  0  0  0  0  0  0  0  0  0  0
    0.6090    3.1620   10.9710 C   0  0  0  0  0  0  0  0  0  0  0  0
    1.0530    2.3740   12.0290 C   0  0  0  0  0  0  0  0  0  0  0  0
   -2.2780   -2.4250   14.4230 C   0  0  0  0  0  0  0  0  0  0  0  0
   -1.7170   -1.2150   13.9850 C   0  0  0  0  0  0  0  0  0  0  0  0
   -0.3980   -0.8860   14.3060 C   0  0  0  0  0  0  0  0  0  0  0  0
    0.3870   -1.7610   15.0700 C   0  0  0  0  0  0  0  0  0  0  0  0
   -0.1680   -2.9660   15.5100 C   0  0  0  0  0  0  0  0  0  0  0  0
   -1.4870   -3.2970   15.1910 C   0  0  0  0  0  0  0  0  0  0  0  0
   -3.6390   -2.7660   14.0940 N   0  0  0  0  0  0  0  0  0  0  0  0
   -4.1630   -2.5360   12.7550 C   0  0  0  0  0  0  0  0  0  0  0  0
   -4.5110   -3.4450   15.0450 C   0  0  0  0  0  0  0  0  0  0  0  0
   -5.3780   -2.4360   15.7750 C   0  0  0  0  0  0  0  0  0  0  0  0
   -4.6990   -1.9690   16.9000 O   0  0  0  0  0  0  0  0  0  0  0  0
    2.1581   -2.0165   16.1812 H   0  0  0  0  0  0  0  0  0  0  0  0
    4.9474    2.2017   13.2696 H   0  0  0  0  0  0  0  0  0  0  0  0
    6.7380    1.2274   15.1477 H   0  0  0  0  0  0  0  0  0  0  0  0
    6.5409   -0.6955   17.0104 H   0  0  0  0  0  0  0  0  0  0  0  0
    4.3964    2.4493   11.2151 H   0  0  0  0  0  0  0  0  0  0  0  0
    3.5083    3.8688    9.3299 H   0  0  0  0  0  0  0  0  0  0  0  0
    1.0349    4.9425    8.2772 H   0  0  0  0  0  0  0  0  0  0  0  0
   -1.4935    3.2863   11.2300 H   0  0  0  0  0  0  0  0  0  0  0  0
    0.3489    1.9675   12.7699 H   0  0  0  0  0  0  0  0  0  0  0  0
   -2.3214   -0.5199   13.3838 H   0  0  0  0  0  0  0  0  0  0  0  0
    0.0278    0.0663   13.9569 H   0  0  0  0  0  0  0  0  0  0  0  0
    0.4384   -3.6588   16.1119 H   0  0  0  0  0  0  0  0  0  0  0  0
   -1.9106   -4.2488   15.5440 H   0  0  0  0  0  0  0  0  0  0  0  0
   -5.1682   -2.0948   12.8254 H   0  0  0  0  0  0  0  0  0  0  0  0
   -3.4973   -1.8473   12.2140 H   0  0  0  0  0  0  0  0  0  0  0  0
   -4.2193   -3.4921   12.2140 H   0  0  0  0  0  0  0  0  0  0  0  0
   -5.1554   -4.1541   14.5047 H   0  0  0  0  0  0  0  0  0  0  0  0
   -3.8921   -3.9830   15.7782 H   0  0  0  0  0  0  0  0  0  0  0  0
   -5.6023   -1.5925   15.1055 H   0  0  0  0  0  0  0  0  0  0  0  0
   -6.3174   -2.9162   16.0862 H   0  0  0  0  0  0  0  0  0  0  0  0
   -5.1587   -2.2852   17.7178 H   0  0  0  0  0  0  0  0  0  0  0  0
  1  2  1  0
  1 23  1  0
  2 10  1  0
  2  3  2  0
  3  4  1  0
  4  5  2  0
  4 11  1  0
  5  6  1  0
  6 10  1  0
  6  7  1  0
  7  8  2  0
  8  9  1  0
  9 10  2  0
 11 12  2  0
 11 19  1  0
 12 13  1  0
 13 14  2  0
 14 18  1  0
 14 15  1  0
 15 16  2  0
 16 17  1  0
 17 18  1  0
 18 19  2  0
 20 25  2  0
 20 21  1  0
 20 26  1  0
 21 22  2  0
 22 23  1  0
 23 24  2  0
 24 25  1  0
 26 28  1  0
 26 27  1  0
 28 29  1  0
 29 30  1  0
  1 31  1  0
  5 32  1  0
  7 33  1  0
  8 34  1  0
 12 35  1  0
 13 36  1  0
 15 37  1  0
 17 38  1  0
 19 39  1  0
 21 40  1  0
 22 41  1  0
 24 42  1  0
 25 43  1  0
 27 44  1  0
 27 45  1  0
 27 46  1  0
 28 47  1  0
 28 48  1  0
 29 49  1  0
 29 50  1  0
 30 51  1  0
M  END
>  <s_m_entry_id>  (1) 
1144

>  <MODEL>  (1) 
1

>  <REMARK>  (1) 
 VINA RESULT:    -9.274      0.000      0.000
 INTER + INTRA:         -12.091
 INTER:                 -11.727
 INTRA:                  -0.364
 UNBOUND:                 0.165
  Name = /scratch/kmzp800/tmpqfrosyt6/tmp7rpdr0zy.pdb
  7 active torsions:
  status: ('A' for Active; 'I' for Inactive)
    1  A    between atoms: O1_1  and  C1_2
    2  A    between atoms: C1_2  and  C2_3
    3  A    between atoms: C2_3  and  N1_4
    4  A    between atoms: N1_4  and  C3_5
    5  A    between atoms: N1_4  and  C22_30
    6  A    between atoms: C6_8  and  N2_9
    7  A    between atoms: C8_12  and  C9_13
                            x       y       z     vdW  Elec       q    Type
                         _______ _______ _______ _____ _____    ______ ____

>  <TORSDO>  (1) 
F 6

>  <grid_id>  (1) 
syk-prepared

>  <grid_path>  (1) 
syk_vina.pdbqt

>  <grid_filename>  (1) 
syk_vina.pdbqt

>  <docking_score>  (1) 
-9.274

>  <compound_name>  (1) 
CHEMBL3265035

>  <index_string>  (1) 
40:0:0

>  <s_m_Source_Path>  (1) 
/projects/mai/users/kmzp800_harry/pmx_colab/docking_jobs/syk/vina_prep/output

>  <s_m_Source_File>  (1) 
ptp1b_docked_conformers.sdf

>  <i_m_Source_File_Index>  (1) 
968

$$$$
