16:0:0
     RDKit          3D

 44 46  0  0  1  0  0  0  0  0999 V2000
   38.9485   36.5326   15.8892 F   0  0  0  0  0  0  0  0  0  0  0  0
   37.9275   36.1988   16.7039 C   0  0  0  0  0  0  0  0  0  0  0  0
   38.1031   36.2247   18.0985 C   0  0  0  0  0  0  0  0  0  0  0  0
   37.0181   35.9493   18.9526 C   0  0  0  0  0  0  0  0  0  0  0  0
   37.2184   35.9495   20.2890 F   0  0  0  0  0  0  0  0  0  0  0  0
   35.7521   35.6145   18.4065 C   0  0  0  0  0  0  0  0  0  0  0  0
   35.6021   35.5493   17.0074 C   0  0  0  0  0  0  0  0  0  0  0  0
   36.6795   35.8563   16.1580 C   0  0  0  0  0  0  0  0  0  0  0  0
   34.6661   35.2657   19.1730 O   0  0  0  0  0  0  0  0  0  0  0  0
   34.3720   35.9475   20.3275 C   0  0  0  0  0  0  0  0  0  0  0  0
   34.5457   37.2812   20.4333 C   0  0  0  0  0  0  0  0  0  0  0  0
   33.8196   35.1585   21.4323 C   0  0  0  0  0  0  0  0  0  0  0  0
   33.7564   33.9303   21.3637 O   0  0  0  0  0  0  0  0  0  0  0  0
   33.4050   35.8473   22.5382 N   0  0  0  0  0  0  0  0  0  0  0  0
   32.7793   35.1098   23.6460 C   0  0  0  0  0  0  0  0  0  0  0  0
   33.6158   37.2563   22.7156 C   0  0  0  0  0  0  0  0  0  0  0  0
   34.2126   37.9785   21.6620 C   0  0  0  0  0  0  0  0  0  0  0  0
   33.2697   37.9033   23.8534 N   0  0  0  0  0  0  0  0  0  0  0  0
   33.5453   39.2038   23.9465 C   0  0  0  0  0  0  0  0  0  0  0  0
   34.1522   39.9493   23.0279 N   0  0  0  0  0  0  0  0  0  0  0  0
   34.4821   39.3414   21.8733 C   0  0  0  0  0  0  0  0  0  0  0  0
   33.1258   39.8914   25.0659 N   0  0  0  0  0  0  0  0  0  0  0  0
   32.5510   39.3026   26.2646 C   0  0  0  0  0  0  0  0  0  0  0  0
   33.4604   39.4794   27.4925 C   0  0  0  0  0  0  0  0  0  0  0  0
   34.9405   38.3707   27.5057 S   0  0  0  0  0  0  0  0  0  0  0  0
   35.5692   38.4882   28.8291 O   0  0  0  0  0  0  0  0  0  0  0  0
   35.7437   38.5922   26.2936 O   0  0  0  0  0  0  0  0  0  0  0  0
   34.1817   36.7038   27.3792 C   0  0  0  0  0  0  0  0  0  0  0  0
   39.0712   36.4554   18.5138 H   0  0  0  0  0  0  0  0  0  0  0  0
   34.6445   35.2826   16.5837 H   0  0  0  0  0  0  0  0  0  0  0  0
   36.5429   35.8422   15.0906 H   0  0  0  0  0  0  0  0  0  0  0  0
   34.9278   37.8686   19.6111 H   0  0  0  0  0  0  0  0  0  0  0  0
   32.3578   34.1466   23.3521 H   0  0  0  0  0  0  0  0  0  0  0  0
   33.5143   34.9272   24.4323 H   0  0  0  0  0  0  0  0  0  0  0  0
   31.9531   35.6759   24.0795 H   0  0  0  0  0  0  0  0  0  0  0  0
   34.9567   39.9462   21.1154 H   0  0  0  0  0  0  0  0  0  0  0  0
   33.4147   40.8648   25.1397 H   0  0  0  0  0  0  0  0  0  0  0  0
   32.2776   38.2589   26.1200 H   0  0  0  0  0  0  0  0  0  0  0  0
   31.6137   39.8270   26.4490 H   0  0  0  0  0  0  0  0  0  0  0  0
   32.8964   39.2644   28.4001 H   0  0  0  0  0  0  0  0  0  0  0  0
   33.8067   40.5100   27.5777 H   0  0  0  0  0  0  0  0  0  0  0  0
   34.9526   35.9499   27.5191 H   0  0  0  0  0  0  0  0  0  0  0  0
   33.7397   36.5729   26.3927 H   0  0  0  0  0  0  0  0  0  0  0  0
   33.4214   36.5857   28.1484 H   0  0  0  0  0  0  0  0  0  0  0  0
  1  2  1  0
  2  8  2  0
  2  3  1  0
  3  4  2  0
  3 29  1  0
  4  5  1  0
  4  6  1  0
  6  7  2  0
  6  9  1  0
  7  8  1  0
  7 30  1  0
  8 31  1  0
  9 10  1  0
 10 11  2  0
 10 12  1  0
 11 17  1  0
 11 32  1  0
 12 13  2  0
 12 14  1  0
 14 15  1  0
 14 16  1  0
 15 33  1  0
 15 34  1  0
 15 35  1  0
 16 17  2  0
 16 18  1  0
 17 21  1  0
 18 19  2  0
 19 20  1  0
 19 22  1  0
 20 21  2  0
 21 36  1  0
 22 23  1  0
 22 37  1  0
 23 24  1  0
 23 38  1  0
 23 39  1  0
 24 25  1  0
 24 40  1  0
 24 41  1  0
 25 26  2  0
 25 27  2  0
 25 28  1  0
 28 42  1  0
 28 43  1  0
 28 44  1  0
M  END
>  <s_m_entry_id>  (1) 
733

>  <i_f3d_flags>  (1) 
0

>  <r_lp_tautomer_probability>  (1) 
1

>  <r_epik_Ionization_Penalty>  (1) 
  0.0000

>  <r_epik_State_Penalty>  (1) 
  0.0000

>  <i_epik_Tot_Q>  (1) 
0

>  <s_m_job_name>  (1) 
glide-dock_SP_p38_all_ligs_no_cons_10_poses

>  <r_i_docking_score>  (1) 
-7.41626309112925

>  <r_i_glide_gscore>  (1) 
-7.41626309112925

>  <r_i_glide_emodel>  (1) 
-59.6950717237378

>  <index_string>  (1) 
16:0:0

$$$$
