23:0:0
     RDKit          3D

 47 49  0  0  1  0  0  0  0  0999 V2000
  -15.2168  -19.2748  -25.9341 C   0  0  0  0  0  0  0  0  0  0  0  0
  -14.7807  -19.8484  -27.1381 C   0  0  0  0  0  0  0  0  0  0  0  0
  -15.4626  -20.1042  -24.8209 C   0  0  0  0  0  0  0  0  0  0  0  0
  -15.3768  -17.7998  -25.8488 C   0  0  0  0  0  0  0  0  0  0  0  0
  -14.5629  -21.2259  -27.2250 C   0  0  0  0  0  0  0  0  0  0  0  0
  -15.2423  -21.4868  -24.9184 C   0  0  0  0  0  0  0  0  0  0  0  0
  -14.7820  -22.0693  -26.1207 C   0  0  0  0  0  0  0  0  0  0  0  0
  -16.1313  -17.2491  -24.8173 N   0  0  0  0  0  0  0  0  0  0  0  0
  -16.3756  -15.9532  -24.6118 C   0  0  0  0  0  0  0  0  0  0  0  0
  -14.8480  -17.0227  -26.7470 N   0  0  0  0  0  0  0  0  0  0  0  0
  -15.0314  -15.6367  -26.6797 C   0  0  0  0  0  0  0  0  0  0  0  0
  -15.7510  -15.0386  -25.6194 C   0  0  0  0  0  0  0  0  0  0  0  0
  -15.8646  -13.6366  -25.5450 C   0  0  0  0  0  0  0  0  0  0  0  0
  -15.2336  -12.8448  -26.5248 C   0  0  0  0  0  0  0  0  0  0  0  0
  -14.5267  -13.4396  -27.5808 C   0  0  0  0  0  0  0  0  0  0  0  0
  -14.4440  -14.8358  -27.6706 C   0  0  0  0  0  0  0  0  0  0  0  0
  -17.0622  -15.5728  -23.6691 O   0  0  0  0  0  0  0  0  0  0  0  0
  -14.4928  -23.5727  -26.1924 C   0  0  0  0  0  0  0  0  0  0  0  0
  -14.1502  -23.9609  -27.5365 O   0  0  0  0  0  0  0  0  0  0  0  0
  -15.3180  -11.5053  -26.4847 F   0  0  0  0  0  0  0  0  0  0  0  0
  -14.5408  -25.2223  -28.1033 C   0  0  0  0  0  0  0  0  0  0  0  0
  -13.8752  -26.4752  -27.5171 C   0  0  0  0  0  0  0  0  0  0  0  0
  -12.5865  -26.7300  -28.0323 O   0  0  0  0  0  0  0  0  0  0  0  0
  -11.6163  -25.8046  -27.5677 C   0  0  0  0  0  0  0  0  0  0  0  0
  -15.7419  -24.3238  -25.6802 C   0  0  0  0  0  0  0  0  0  0  0  0
  -13.2344  -23.8092  -25.3291 C   0  0  0  0  0  0  0  0  0  0  0  0
  -14.6217  -19.2452  -28.0170 H   0  0  0  0  0  0  0  0  0  0  0  0
  -15.7980  -19.6983  -23.8796 H   0  0  0  0  0  0  0  0  0  0  0  0
  -14.2085  -21.5891  -28.1668 H   0  0  0  0  0  0  0  0  0  0  0  0
  -15.4079  -22.0958  -24.0459 H   0  0  0  0  0  0  0  0  0  0  0  0
  -16.5619  -17.8742  -24.1439 H   0  0  0  0  0  0  0  0  0  0  0  0
  -16.4285  -13.1806  -24.7439 H   0  0  0  0  0  0  0  0  0  0  0  0
  -14.0703  -12.8198  -28.3365 H   0  0  0  0  0  0  0  0  0  0  0  0
  -13.8986  -15.2948  -28.4830 H   0  0  0  0  0  0  0  0  0  0  0  0
  -14.3016  -25.2101  -29.1632 H   0  0  0  0  0  0  0  0  0  0  0  0
  -15.6205  -25.3402  -28.0322 H   0  0  0  0  0  0  0  0  0  0  0  0
  -14.4924  -27.3356  -27.7823 H   0  0  0  0  0  0  0  0  0  0  0  0
  -13.8375  -26.4359  -26.4369 H   0  0  0  0  0  0  0  0  0  0  0  0
  -10.6468  -26.0652  -27.9833 H   0  0  0  0  0  0  0  0  0  0  0  0
  -11.5319  -25.8313  -26.4816 H   0  0  0  0  0  0  0  0  0  0  0  0
  -11.8478  -24.7853  -27.8759 H   0  0  0  0  0  0  0  0  0  0  0  0
  -15.9954  -24.0575  -24.6565 H   0  0  0  0  0  0  0  0  0  0  0  0
  -16.5977  -24.0729  -26.3035 H   0  0  0  0  0  0  0  0  0  0  0  0
  -15.6599  -25.4027  -25.6957 H   0  0  0  0  0  0  0  0  0  0  0  0
  -13.3618  -23.4694  -24.3031 H   0  0  0  0  0  0  0  0  0  0  0  0
  -12.8843  -24.8263  -25.2726 H   0  0  0  0  0  0  0  0  0  0  0  0
  -12.3951  -23.2561  -25.7394 H   0  0  0  0  0  0  0  0  0  0  0  0
  1  2  2  0
  1  3  1  0
  1  4  1  0
  2  5  1  0
  2 27  1  0
  3  6  2  0
  3 28  1  0
  4  8  1  0
  4 10  2  0
  5  7  2  0
  5 29  1  0
  6  7  1  0
  6 30  1  0
  7 18  1  0
  8  9  1  0
  8 31  1  0
  9 12  1  0
  9 17  2  0
 10 11  1  0
 11 12  2  0
 11 16  1  0
 12 13  1  0
 13 14  2  0
 13 32  1  0
 14 15  1  0
 14 20  1  0
 15 16  2  0
 15 33  1  0
 16 34  1  0
 18 19  1  0
 18 25  1  0
 18 26  1  0
 19 21  1  0
 21 22  1  0
 21 35  1  0
 21 36  1  0
 22 23  1  0
 22 37  1  0
 22 38  1  0
 23 24  1  0
 24 39  1  0
 24 40  1  0
 24 41  1  0
 25 42  1  0
 25 43  1  0
 25 44  1  0
 26 45  1  0
 26 46  1  0
 26 47  1  0
M  END
>  <s_m_entry_id>  (1) 
520

>  <Name>  (1) 
5p

>  <IC50[nM]>  (1) 
20

>  <s_m_Source_Path>  (1) 
/projects/mai/users/kmzp800_harry/pmx_colab/docking_jobs/tnks2

>  <s_m_Source_File>  (1) 
tnks2_lig.sdf

>  <i_m_Source_File_Index>  (1) 
20

>  <s_m_job_name>  (1) 
glide-dock_SP_tnks_mcs_fallabck

>  <r_i_docking_score>  (1) 
-9.45294190004776

>  <r_i_glide_gscore>  (1) 
-9.45294190004776

>  <r_i_glide_emodel>  (1) 
-36.5335870539112

>  <index_string>  (1) 
23:0:0

$$$$
