31:0:0
     RDKit          3D

 51 54  0  0  1  0  0  0  0  0999 V2000
    5.6140   -0.5930   16.2990 C   0  0  0  0  0  0  0  0  0  0  0  0
    4.3470   -1.0720   16.2250 N   0  0  0  0  0  0  0  0  0  0  0  0
    3.7910   -0.3450   15.2410 C   0  0  0  0  0  0  0  0  0  0  0  0
    2.4860   -0.4430   14.7650 C   0  0  0  0  0  0  0  0  0  0  0  0
    1.5750   -1.3970   15.3290 N   0  0  0  0  0  0  0  0  0  0  0  0
    2.1170    0.3940   13.7520 N   0  0  0  0  0  0  0  0  0  0  0  0
    2.9810    1.3090   13.2060 C   0  0  0  0  0  0  0  0  0  0  0  0
    4.2950    1.3880   13.7070 C   0  0  0  0  0  0  0  0  0  0  0  0
    4.6350    0.5450   14.7120 N   0  0  0  0  0  0  0  0  0  0  0  0
    5.8000    0.4160   15.3570 C   0  0  0  0  0  0  0  0  0  0  0  0
    2.5280    2.1920   12.1120 C   0  0  0  0  0  0  0  0  0  0  0  0
    3.4450    2.6730   11.1710 C   0  0  0  0  0  0  0  0  0  0  0  0
    3.0240    3.5070   10.1350 C   0  0  0  0  0  0  0  0  0  0  0  0
    1.6810    3.8750   10.0200 C   0  0  0  0  0  0  0  0  0  0  0  0
    1.3130    4.7690    8.8830 C   0  0  0  0  0  0  0  0  0  0  0  0
    0.7340    3.3990   10.9620 C   0  0  0  0  0  0  0  0  0  0  0  0
    1.1800    2.5610   11.9960 C   0  0  0  0  0  0  0  0  0  0  0  0
   -0.7110    3.7390   10.9170 C   0  0  0  0  0  0  0  0  0  0  0  0
   -1.4350    3.3900    9.9480 O   0  0  0  0  0  0  0  0  0  0  0  0
   -1.3050    4.4750   11.9840 N   0  0  0  0  0  0  0  0  0  0  0  0
    0.2100   -1.6190   14.9500 C   0  0  0  0  0  0  0  0  0  0  0  0
   -0.4280   -2.8490   15.1520 C   0  0  0  0  0  0  0  0  0  0  0  0
   -1.7590   -3.0250   14.7700 C   0  0  0  0  0  0  0  0  0  0  0  0
   -2.4740   -1.9730   14.1780 C   0  0  0  0  0  0  0  0  0  0  0  0
   -1.8420   -0.7370   13.9710 C   0  0  0  0  0  0  0  0  0  0  0  0
   -0.5020   -0.5700   14.3610 C   0  0  0  0  0  0  0  0  0  0  0  0
   -3.8090   -2.1310   13.7870 O   0  0  0  0  0  0  0  0  0  0  0  0
   -4.2300   -3.1440   12.8840 C   0  0  0  0  0  0  0  0  0  0  0  0
   -2.5600    0.3090   13.3810 O   0  0  0  0  0  0  0  0  0  0  0  0
   -2.1800    0.9030   12.1470 C   0  0  0  0  0  0  0  0  0  0  0  0
    6.3825   -0.9495   17.0007 H   0  0  0  0  0  0  0  0  0  0  0  0
    1.9416   -1.9871   16.0895 H   0  0  0  0  0  0  0  0  0  0  0  0
    5.0189    2.1078   13.2974 H   0  0  0  0  0  0  0  0  0  0  0  0
    6.7204    0.9915   15.1790 H   0  0  0  0  0  0  0  0  0  0  0  0
    4.5055    2.3915   11.2487 H   0  0  0  0  0  0  0  0  0  0  0  0
    3.7557    3.8781    9.4023 H   0  0  0  0  0  0  0  0  0  0  0  0
    0.9218    5.7192    9.2755 H   0  0  0  0  0  0  0  0  0  0  0  0
    2.2035    4.9652    8.2678 H   0  0  0  0  0  0  0  0  0  0  0  0
    0.5424    4.2815    8.2678 H   0  0  0  0  0  0  0  0  0  0  0  0
    0.4550    2.1848   12.7328 H   0  0  0  0  0  0  0  0  0  0  0  0
   -2.3072    4.7103   11.9519 H   0  0  0  0  0  0  0  0  0  0  0  0
   -0.7319    4.7713   12.7869 H   0  0  0  0  0  0  0  0  0  0  0  0
    0.1229   -3.6813   15.6144 H   0  0  0  0  0  0  0  0  0  0  0  0
   -2.2507   -3.9952   14.9343 H   0  0  0  0  0  0  0  0  0  0  0  0
   -0.0069    0.3991   14.2006 H   0  0  0  0  0  0  0  0  0  0  0  0
   -4.5916   -4.0141   13.4517 H   0  0  0  0  0  0  0  0  0  0  0  0
   -5.0415   -2.7564   12.2506 H   0  0  0  0  0  0  0  0  0  0  0  0
   -3.3828   -3.4458   12.2506 H   0  0  0  0  0  0  0  0  0  0  0  0
   -1.5967    1.8148   12.3432 H   0  0  0  0  0  0  0  0  0  0  0  0
   -1.5680    0.1930   11.5714 H   0  0  0  0  0  0  0  0  0  0  0  0
   -3.0812    1.1610   11.5714 H   0  0  0  0  0  0  0  0  0  0  0  0
  1  2  1  0
  1 10  2  0
  2  3  2  0
  3  4  1  0
  3  9  1  0
  4  5  1  0
  4  6  2  0
  5 21  1  0
  6  7  1  0
  7  8  2  0
  7 11  1  0
  8  9  1  0
  9 10  1  0
 11 12  2  0
 11 17  1  0
 12 13  1  0
 13 14  2  0
 14 16  1  0
 14 15  1  0
 16 17  2  0
 16 18  1  0
 18 20  1  0
 18 19  2  0
 21 22  2  0
 21 26  1  0
 22 23  1  0
 23 24  2  0
 24 25  1  0
 24 27  1  0
 25 26  2  0
 25 29  1  0
 27 28  1  0
 29 30  1  0
  1 31  1  0
  5 32  1  0
  8 33  1  0
 10 34  1  0
 12 35  1  0
 13 36  1  0
 15 37  1  0
 15 38  1  0
 15 39  1  0
 17 40  1  0
 20 41  1  0
 20 42  1  0
 22 43  1  0
 23 44  1  0
 26 45  1  0
 28 46  1  0
 28 47  1  0
 28 48  1  0
 30 49  1  0
 30 50  1  0
 30 51  1  0
M  END
>  <s_m_entry_id>  (1) 
941

>  <MODEL>  (1) 
1

>  <REMARK>  (1) 
 VINA RESULT:    -9.383      0.000      0.000
 INTER + INTRA:         -12.231
 INTER:                 -11.849
 INTRA:                  -0.383
 UNBOUND:                -0.106
  Name = /scratch/kmzp800/tmp336uht9o/tmp55_mqk7o.pdb
  8 active torsions:
  status: ('A' for Active; 'I' for Inactive)
    1  A    between atoms: N2_5  and  C4_6
    2  A    between atoms: C7_9  and  O1_10
    3  A    between atoms: O1_10  and  C8_11
    4  A    between atoms: C9_12  and  O2_13
    5  A    between atoms: O2_13  and  C10_14
    6  A    between atoms: C12_17  and  C13_18
    7  A    between atoms: C16_21  and  C17_22
    8  A    between atoms: C18_23  and  C19_24
                            x       y       z     vdW  Elec       q    Type
                         _______ _______ _______ _____ _____    ______ ____

>  <TORSDO>  (1) 
F 5

>  <grid_id>  (1) 
syk-prepared

>  <grid_path>  (1) 
syk_vina.pdbqt

>  <grid_filename>  (1) 
syk_vina.pdbqt

>  <docking_score>  (1) 
-9.383

>  <compound_name>  (1) 
CHEMBL3265009

>  <index_string>  (1) 
31:0:0

>  <s_m_Source_Path>  (1) 
/projects/mai/users/kmzp800_harry/pmx_colab/docking_jobs/syk/vina_prep/output

>  <s_m_Source_File>  (1) 
ptp1b_docked_conformers.sdf

>  <i_m_Source_File_Index>  (1) 
765

$$$$
