1:0:0
     RDKit          3D

 37 39  0  0  1  0  0  0  0  0999 V2000
  -14.3934  -14.9826  -27.7524 C   0  0  0  0  0  0  0  0  0  0  0  0
  -15.0163  -15.7350  -26.7386 C   0  0  0  0  0  0  0  0  0  0  0  0
  -14.4483  -13.5796  -27.7309 C   0  0  0  0  0  0  0  0  0  0  0  0
  -15.7496  -15.0865  -25.7209 C   0  0  0  0  0  0  0  0  0  0  0  0
  -14.8469  -17.1227  -26.7386 N   0  0  0  0  0  0  0  0  0  0  0  0
  -15.1729  -12.9264  -26.7190 C   0  0  0  0  0  0  0  0  0  0  0  0
  -15.8251  -13.6710  -25.7101 C   0  0  0  0  0  0  0  0  0  0  0  0
  -16.4139  -15.9717  -24.6999 C   0  0  0  0  0  0  0  0  0  0  0  0
  -16.0584  -17.2645  -24.7387 N   0  0  0  0  0  0  0  0  0  0  0  0
  -17.2372  -15.5727  -23.8888 O   0  0  0  0  0  0  0  0  0  0  0  0
  -15.3040  -17.8480  -25.7590 C   0  0  0  0  0  0  0  0  0  0  0  0
  -15.0633  -19.3127  -25.7754 C   0  0  0  0  0  0  0  0  0  0  0  0
  -14.9902  -20.0739  -24.5882 C   0  0  0  0  0  0  0  0  0  0  0  0
  -14.6122  -21.4324  -24.6435 C   0  0  0  0  0  0  0  0  0  0  0  0
  -14.3233  -22.0404  -25.8882 C   0  0  0  0  0  0  0  0  0  0  0  0
  -14.5024  -21.2924  -27.0616 C   0  0  0  0  0  0  0  0  0  0  0  0
  -14.8482  -19.9425  -27.0135 C   0  0  0  0  0  0  0  0  0  0  0  0
  -13.8455  -23.4822  -26.0181 C   0  0  0  0  0  0  0  0  0  0  0  0
  -13.0248  -23.6758  -27.1513 O   0  0  0  0  0  0  0  0  0  0  0  0
  -15.2481  -11.5748  -26.7385 F   0  0  0  0  0  0  0  0  0  0  0  0
  -16.4987  -13.0132  -24.7386 F   0  0  0  0  0  0  0  0  0  0  0  0
  -15.0773  -24.3727  -26.2295 C   0  0  0  0  0  0  0  0  0  0  0  0
  -12.9351  -23.9054  -24.8529 C   0  0  0  0  0  0  0  0  0  0  0  0
  -13.8349  -15.4829  -28.5302 H   0  0  0  0  0  0  0  0  0  0  0  0
  -13.9522  -13.0003  -28.4964 H   0  0  0  0  0  0  0  0  0  0  0  0
  -16.5067  -17.8751  -24.0668 H   0  0  0  0  0  0  0  0  0  0  0  0
  -15.1833  -19.6197  -23.6282 H   0  0  0  0  0  0  0  0  0  0  0  0
  -14.5246  -21.9868  -23.7215 H   0  0  0  0  0  0  0  0  0  0  0  0
  -14.3095  -21.7327  -28.0144 H   0  0  0  0  0  0  0  0  0  0  0  0
  -14.8615  -19.3891  -27.9407 H   0  0  0  0  0  0  0  0  0  0  0  0
  -12.7119  -24.5675  -27.1426 H   0  0  0  0  0  0  0  0  0  0  0  0
  -15.7577  -24.3046  -25.3801 H   0  0  0  0  0  0  0  0  0  0  0  0
  -14.8051  -25.4214  -26.3411 H   0  0  0  0  0  0  0  0  0  0  0  0
  -15.6344  -24.0808  -27.1206 H   0  0  0  0  0  0  0  0  0  0  0  0
  -13.4896  -23.9723  -23.9201 H   0  0  0  0  0  0  0  0  0  0  0  0
  -12.4484  -24.8687  -25.0174 H   0  0  0  0  0  0  0  0  0  0  0  0
  -12.1362  -23.1784  -24.7147 H   0  0  0  0  0  0  0  0  0  0  0  0
  1  2  2  0
  1  3  1  0
  1 24  1  0
  2  4  1  0
  2  5  1  0
  3  6  2  0
  3 25  1  0
  4  7  2  0
  4  8  1  0
  5 11  2  0
  6  7  1  0
  6 20  1  0
  7 21  1  0
  8  9  1  0
  8 10  2  0
  9 11  1  0
  9 26  1  0
 11 12  1  0
 12 13  2  0
 12 17  1  0
 13 14  1  0
 13 27  1  0
 14 15  2  0
 14 28  1  0
 15 16  1  0
 15 18  1  0
 16 17  2  0
 16 29  1  0
 17 30  1  0
 18 19  1  0
 18 22  1  0
 18 23  1  0
 19 31  1  0
 22 32  1  0
 22 33  1  0
 22 34  1  0
 23 35  1  0
 23 36  1  0
 23 37  1  0
M  END
>  <s_m_entry_id>  (1) 
416

>  <Name>  (1) 
5j

>  <IC50[nM]>  (1) 
7.5

>  <s_m_Source_Path>  (1) 
/projects/mai/users/kmzp800_harry/pmx_colab/docking_jobs/tnks2

>  <s_m_Source_File>  (1) 
tnks2_lig.sdf

>  <i_m_Source_File_Index>  (1) 
2

>  <s_m_job_name>  (1) 
glide-dock_SP_tnks2_no_cons

>  <r_i_docking_score>  (1) 
-10.919621762437

>  <r_i_glide_gscore>  (1) 
-10.919621762437

>  <r_i_glide_emodel>  (1) 
-67.8847151306759

>  <index_string>  (1) 
1:0:0

$$$$
