22:0:0
     RDKit          3D

 51 54  0  0  1  0  0  0  0  0999 V2000
    5.6090   -0.5600   16.2670 C   0  0  0  0  0  0  0  0  0  0  0  0
    4.3630   -1.0990   16.2410 N   0  0  0  0  0  0  0  0  0  0  0  0
    3.7390   -0.4050   15.2760 C   0  0  0  0  0  0  0  0  0  0  0  0
    2.4240   -0.5700   14.8480 C   0  0  0  0  0  0  0  0  0  0  0  0
    1.5800   -1.5620   15.4480 N   0  0  0  0  0  0  0  0  0  0  0  0
    1.9790    0.2440   13.8440 N   0  0  0  0  0  0  0  0  0  0  0  0
    2.7780    1.1960   13.2640 C   0  0  0  0  0  0  0  0  0  0  0  0
    4.1040    1.3400   13.7170 C   0  0  0  0  0  0  0  0  0  0  0  0
    4.5190    0.5210   14.7120 N   0  0  0  0  0  0  0  0  0  0  0  0
    5.7120    0.4520   15.3160 C   0  0  0  0  0  0  0  0  0  0  0  0
    2.2450    2.0490   12.1820 C   0  0  0  0  0  0  0  0  0  0  0  0
    0.8780    2.3420   12.1280 C   0  0  0  0  0  0  0  0  0  0  0  0
    0.3660    3.1470   11.1100 C   0  0  0  0  0  0  0  0  0  0  0  0
    1.2040    3.6810   10.1180 C   0  0  0  0  0  0  0  0  0  0  0  0
    2.5900    3.3840   10.1710 C   0  0  0  0  0  0  0  0  0  0  0  0
    3.5670    3.8980    9.1690 C   0  0  0  0  0  0  0  0  0  0  0  0
    3.0900    2.5770   11.1970 C   0  0  0  0  0  0  0  0  0  0  0  0
    0.5860    4.5280    9.0670 C   0  0  0  0  0  0  0  0  0  0  0  0
    0.7330    5.7790    9.0660 O   0  0  0  0  0  0  0  0  0  0  0  0
   -0.1900    3.9300    8.0320 N   0  0  0  0  0  0  0  0  0  0  0  0
    0.2140   -1.8500   15.1200 C   0  0  0  0  0  0  0  0  0  0  0  0
   -0.3710   -3.0930   15.3940 C   0  0  0  0  0  0  0  0  0  0  0  0
   -1.7040   -3.3350   15.0600 C   0  0  0  0  0  0  0  0  0  0  0  0
   -2.4750   -2.3360   14.4440 C   0  0  0  0  0  0  0  0  0  0  0  0
   -1.8960   -1.0890   14.1650 C   0  0  0  0  0  0  0  0  0  0  0  0
   -0.5530   -0.8560   14.5070 C   0  0  0  0  0  0  0  0  0  0  0  0
   -3.8130   -2.5600   14.1000 O   0  0  0  0  0  0  0  0  0  0  0  0
   -4.2010   -3.1600   12.8710 C   0  0  0  0  0  0  0  0  0  0  0  0
   -2.6700   -0.0980   13.5510 O   0  0  0  0  0  0  0  0  0  0  0  0
   -2.1900    0.6950   12.4730 C   0  0  0  0  0  0  0  0  0  0  0  0
    6.4188   -0.8765   16.9409 H   0  0  0  0  0  0  0  0  0  0  0  0
    2.0012   -2.1301   16.1968 H   0  0  0  0  0  0  0  0  0  0  0  0
    4.7778    2.0906   13.2783 H   0  0  0  0  0  0  0  0  0  0  0  0
    6.5963    1.0708   15.1035 H   0  0  0  0  0  0  0  0  0  0  0  0
    0.2018    1.9346   12.8940 H   0  0  0  0  0  0  0  0  0  0  0  0
   -0.7115    3.3669   11.0841 H   0  0  0  0  0  0  0  0  0  0  0  0
    4.4241    4.3489    9.6905 H   0  0  0  0  0  0  0  0  0  0  0  0
    3.9170    3.0673    8.5386 H   0  0  0  0  0  0  0  0  0  0  0  0
    3.0807    4.6570    8.5386 H   0  0  0  0  0  0  0  0  0  0  0  0
    4.1663    2.3524   11.2317 H   0  0  0  0  0  0  0  0  0  0  0  0
   -0.6181    4.5190    7.3035 H   0  0  0  0  0  0  0  0  0  0  0  0
   -0.3227    2.9088    8.0124 H   0  0  0  0  0  0  0  0  0  0  0  0
    0.2241   -3.8831   15.8754 H   0  0  0  0  0  0  0  0  0  0  0  0
   -2.1537   -4.3144   15.2806 H   0  0  0  0  0  0  0  0  0  0  0  0
   -0.0995    0.1222   14.2891 H   0  0  0  0  0  0  0  0  0  0  0  0
   -4.7879   -4.0676   13.0753 H   0  0  0  0  0  0  0  0  0  0  0  0
   -4.8118   -2.4506   12.2934 H   0  0  0  0  0  0  0  0  0  0  0  0
   -3.3035   -3.4260   12.2934 H   0  0  0  0  0  0  0  0  0  0  0  0
   -1.6590    1.5722   12.8712 H   0  0  0  0  0  0  0  0  0  0  0  0
   -1.5015    0.0981   11.8569 H   0  0  0  0  0  0  0  0  0  0  0  0
   -3.0382    1.0282   11.8569 H   0  0  0  0  0  0  0  0  0  0  0  0
  1  2  1  0
  1 10  2  0
  2  3  2  0
  3  4  1  0
  3  9  1  0
  4  5  1  0
  4  6  2  0
  5 21  1  0
  6  7  1  0
  7  8  2  0
  7 11  1  0
  8  9  1  0
  9 10  1  0
 11 12  2  0
 11 17  1  0
 12 13  1  0
 13 14  2  0
 14 15  1  0
 14 18  1  0
 15 17  2  0
 15 16  1  0
 18 19  2  0
 18 20  1  0
 21 22  2  0
 21 26  1  0
 22 23  1  0
 23 24  2  0
 24 25  1  0
 24 27  1  0
 25 26  2  0
 25 29  1  0
 27 28  1  0
 29 30  1  0
  1 31  1  0
  5 32  1  0
  8 33  1  0
 10 34  1  0
 12 35  1  0
 13 36  1  0
 16 37  1  0
 16 38  1  0
 16 39  1  0
 17 40  1  0
 20 41  1  0
 20 42  1  0
 22 43  1  0
 23 44  1  0
 26 45  1  0
 28 46  1  0
 28 47  1  0
 28 48  1  0
 30 49  1  0
 30 50  1  0
 30 51  1  0
M  END
>  <s_m_entry_id>  (1) 
777

>  <MODEL>  (1) 
2

>  <REMARK>  (1) 
 VINA RESULT:    -9.671      1.719      6.698
 INTER + INTRA:         -12.430
 INTER:                 -12.095
 INTRA:                  -0.335
 UNBOUND:                 0.068
  Name = /scratch/kmzp800/tmpno1c73x7/tmpcfzp9_kc.pdb
  8 active torsions:
  status: ('A' for Active; 'I' for Inactive)
    1  A    between atoms: N2_5  and  C4_6
    2  A    between atoms: C7_9  and  O1_10
    3  A    between atoms: O1_10  and  C8_11
    4  A    between atoms: C9_12  and  O2_13
    5  A    between atoms: O2_13  and  C10_14
    6  A    between atoms: C12_17  and  C13_18
    7  A    between atoms: C16_21  and  C17_22
    8  A    between atoms: C18_25  and  C19_26
                            x       y       z     vdW  Elec       q    Type
                         _______ _______ _______ _____ _____    ______ ____

>  <TORSDO>  (1) 
F 5

>  <grid_id>  (1) 
syk-prepared

>  <grid_path>  (1) 
syk_vina.pdbqt

>  <grid_filename>  (1) 
syk_vina.pdbqt

>  <docking_score>  (1) 
-9.671

>  <compound_name>  (1) 
CHEMBL3265013

>  <index_string>  (1) 
22:0:0

>  <s_m_Source_Path>  (1) 
/projects/mai/users/kmzp800_harry/pmx_colab/docking_jobs/syk/vina_prep/output

>  <s_m_Source_File>  (1) 
ptp1b_docked_conformers.sdf

>  <i_m_Source_File_Index>  (1) 
601

$$$$
