3:0:0
     RDKit          3D

 48 51  0  0  1  0  0  0  0  0999 V2000
   33.5040   36.0100   20.2830 C   0  0  0  0  0  0  0  0  0  0  0  0
   33.6760   37.3830   20.4530 C   0  0  0  0  0  0  0  0  0  0  0  0
   33.6660   37.9250   21.7330 C   0  0  0  0  0  0  0  0  0  0  0  0
   33.8350   39.2910   21.9390 C   0  0  0  0  0  0  0  0  0  0  0  0
   33.8190   39.7890   23.2020 N   0  0  0  0  0  0  0  0  0  0  0  0
   33.6390   38.9740   24.2760 C   0  0  0  0  0  0  0  0  0  0  0  0
   33.6280   39.5350   25.5910 N   0  0  0  0  0  0  0  0  0  0  0  0
   33.4730   37.6350   24.0930 N   0  0  0  0  0  0  0  0  0  0  0  0
   33.4810   37.0860   22.8460 C   0  0  0  0  0  0  0  0  0  0  0  0
   33.3100   35.7400   22.6680 N   0  0  0  0  0  0  0  0  0  0  0  0
   33.1160   34.8760   23.8300 C   0  0  0  0  0  0  0  0  0  0  0  0
   33.3180   35.1910   21.4110 C   0  0  0  0  0  0  0  0  0  0  0  0
   33.1580   33.9470   21.2610 O   0  0  0  0  0  0  0  0  0  0  0  0
   33.4120   38.7350   26.7910 C   0  0  0  0  0  0  0  0  0  0  0  0
   32.8490   39.6150   27.9180 C   0  0  0  0  0  0  0  0  0  0  0  0
   33.9530   40.3220   28.7200 C   0  0  0  0  0  0  0  0  0  0  0  0
   35.1840   40.2830   28.0420 O   0  0  0  0  0  0  0  0  0  0  0  0
   35.6020   38.9420   28.0890 C   0  0  0  0  0  0  0  0  0  0  0  0
   34.7250   38.0520   27.1920 C   0  0  0  0  0  0  0  0  0  0  0  0
   33.4920   35.4430   18.8980 C   0  0  0  0  0  0  0  0  0  0  0  0
   37.2320   35.8810   18.4710 C   0  0  0  0  0  0  0  0  0  0  0  0
   35.9680   35.7680   19.0550 C   0  0  0  0  0  0  0  0  0  0  0  0
   34.8340   35.5840   18.2540 C   0  0  0  0  0  0  0  0  0  0  0  0
   34.9740   35.5070   16.8590 C   0  0  0  0  0  0  0  0  0  0  0  0
   33.8890   35.3230   16.0640 F   0  0  0  0  0  0  0  0  0  0  0  0
   36.2400   35.6210   16.2770 C   0  0  0  0  0  0  0  0  0  0  0  0
   37.3670   35.8090   17.0810 C   0  0  0  0  0  0  0  0  0  0  0  0
   38.5920   35.9170   16.5140 F   0  0  0  0  0  0  0  0  0  0  0  0
   33.8190   38.0344   19.5782 H   0  0  0  0  0  0  0  0  0  0  0  0
   33.9810   39.9647   21.0818 H   0  0  0  0  0  0  0  0  0  0  0  0
   33.7792   40.5485   25.6954 H   0  0  0  0  0  0  0  0  0  0  0  0
   33.2480   35.4640   24.7502 H   0  0  0  0  0  0  0  0  0  0  0  0
   32.1006   34.4535   23.8073 H   0  0  0  0  0  0  0  0  0  0  0  0
   33.8533   34.0600   23.8073 H   0  0  0  0  0  0  0  0  0  0  0  0
   32.6695   37.9485   26.5908 H   0  0  0  0  0  0  0  0  0  0  0  0
   32.1914   40.3775   27.4751 H   0  0  0  0  0  0  0  0  0  0  0  0
   32.2999   38.9602   28.6107 H   0  0  0  0  0  0  0  0  0  0  0  0
   33.6644   41.3717   28.8779 H   0  0  0  0  0  0  0  0  0  0  0  0
   34.0705   39.8008   29.6815 H   0  0  0  0  0  0  0  0  0  0  0  0
   36.6452   38.8795   27.7457 H   0  0  0  0  0  0  0  0  0  0  0  0
   35.5118   38.5861   29.1259 H   0  0  0  0  0  0  0  0  0  0  0  0
   34.4889   37.1260   27.7368 H   0  0  0  0  0  0  0  0  0  0  0  0
   35.2898   37.8465   26.2707 H   0  0  0  0  0  0  0  0  0  0  0  0
   33.2261   34.3768   18.9473 H   0  0  0  0  0  0  0  0  0  0  0  0
   32.7536   35.9949   18.2979 H   0  0  0  0  0  0  0  0  0  0  0  0
   38.1200   36.0264   19.1037 H   0  0  0  0  0  0  0  0  0  0  0  0
   35.8629   35.8238   20.1486 H   0  0  0  0  0  0  0  0  0  0  0  0
   36.3490   35.5626   15.1840 H   0  0  0  0  0  0  0  0  0  0  0  0
  1  2  2  0
  1 12  1  0
  1 20  1  0
  2  3  1  0
  2 29  1  0
  3  4  2  0
  3  9  1  0
  4  5  1  0
  4 30  1  0
  5  6  2  0
  6  7  1  0
  6  8  1  0
  7 14  1  0
  7 31  1  0
  8  9  2  0
  9 10  1  0
 10 11  1  0
 10 12  1  0
 11 32  1  0
 11 33  1  0
 11 34  1  0
 12 13  2  0
 14 19  1  0
 14 15  1  0
 14 35  1  0
 15 16  1  0
 15 36  1  0
 15 37  1  0
 16 17  1  0
 16 38  1  0
 16 39  1  0
 17 18  1  0
 18 19  1  0
 18 40  1  0
 18 41  1  0
 19 42  1  0
 19 43  1  0
 20 23  1  0
 20 44  1  0
 20 45  1  0
 21 22  2  0
 21 27  1  0
 21 46  1  0
 22 23  1  0
 22 47  1  0
 23 24  2  0
 24 25  1  0
 24 26  1  0
 26 27  2  0
 26 48  1  0
 27 28  1  0
M  END
>  <s_m_entry_id>  (1) 
1357

>  <MODEL>  (1) 
1

>  <REMARK>  (1) 
 VINA RESULT:    -9.131      0.000      0.000
 INTER + INTRA:         -11.111
 INTER:                 -10.732
 INTRA:                  -0.379
 UNBOUND:                -0.379
  Name = /scratch/kmzp800/tmpw5wf7pey/tmpwj0ozpia.pdb
  4 active torsions:
  status: ('A' for Active; 'I' for Inactive)
    1  A    between atoms: C3_3  and  C4_4
    2  A    between atoms: C4_4  and  C5_5
    3  A    between atoms: N2_11  and  C10_12
    4  A    between atoms: N4_20  and  C16_21
                            x       y       z     vdW  Elec       q    Type
                         _______ _______ _______ _____ _____    ______ ____

>  <TORSDO>  (1) 
F 3

>  <grid_id>  (1) 
p38-prepared

>  <grid_path>  (1) 
/projects/mai/users/kmzp800_harry/pmx_colab/docking_jobs/p38/vina_docking/input_files/p38_vina.pdbqt

>  <grid_filename>  (1) 
p38_vina.pdbqt

>  <docking_score>  (1) 
-9.131

>  <compound_name>  (1) 
lig_p38a_2j

>  <index_string>  (1) 
3:0:0

>  <s_m_Source_Path>  (1) 
/projects/mai/users/kmzp800_harry/pmx_colab/docking_jobs/p38

>  <s_m_Source_File>  (1) 
p38_confs_vina_naive.sdf

>  <i_m_Source_File_Index>  (1) 
4

$$$$
