13:0:0
     RDKit          3D

 42 43  0  0  1  0  0  0  0  0999 V2000
   42.5380    8.9720   16.8260 C   0  0  0  0  0  0  0  0  0  0  0  0
   42.9390   10.3040   16.6970 C   0  0  0  0  0  0  0  0  0  0  0  0
   42.0240   11.2890   16.2990 C   0  0  0  0  0  0  0  0  0  0  0  0
   40.7050   10.9100   16.0110 C   0  0  0  0  0  0  0  0  0  0  0  0
   40.2930    9.5750   16.1350 C   0  0  0  0  0  0  0  0  0  0  0  0
   41.2180    8.6110   16.5460 C   0  0  0  0  0  0  0  0  0  0  0  0
   42.4750   12.6910   16.1430 C   0  0  0  0  0  0  0  0  0  0  0  0
   43.4320   13.4910   17.2750 S   0  0  0  0  0  0  0  0  0  0  0  0
   43.5270   14.9560   16.4630 C   0  0  0  0  0  0  0  0  0  0  0  0
   42.8090   14.8500   15.2740 C   0  0  0  0  0  0  0  0  0  0  0  0
   42.1980   13.5830   15.0940 C   0  0  0  0  0  0  0  0  0  0  0  0
   40.9510   13.1950   13.6810 Br  0  0  0  0  0  0  0  0  0  0  0  0
   44.2660   16.1330   16.9440 C   0  0  0  0  0  0  0  0  0  0  0  0
   45.0690   16.7280   16.1790 O   0  0  0  0  0  0  0  0  0  0  0  0
   44.0870   16.6000   18.2400 O   0  0  0  0  0  0  0  0  0  0  0  0
   42.7210   15.9320   14.3850 O   0  0  0  0  0  0  0  0  0  0  0  0
   41.8200   17.0210   14.5360 C   0  0  0  0  0  0  0  0  0  0  0  0
   41.0160   17.1960   13.2940 C   0  0  0  0  0  0  0  0  0  0  0  0
   41.5900   17.4370   12.2020 O   0  0  0  0  0  0  0  0  0  0  0  0
   39.6310   17.1300   13.3500 O   0  0  0  0  0  0  0  0  0  0  0  0
   38.9470    9.1660   15.8550 N   0  0  0  0  0  0  0  0  0  0  0  0
   38.4990    8.4080   14.7250 C   0  0  0  0  0  0  0  0  0  0  0  0
   39.3180    7.9810   13.8660 O   0  0  0  0  0  0  0  0  0  0  0  0
   37.1000    8.1330   14.5860 N   0  0  0  0  0  0  0  0  0  0  0  0
   36.5060    7.3750   13.4890 C   0  0  0  0  0  0  0  0  0  0  0  0
   35.5510    6.3180   14.0150 C   0  0  0  0  0  0  0  0  0  0  0  0
   35.7940    8.2960   12.5150 C   0  0  0  0  0  0  0  0  0  0  0  0
   43.2611    8.2081   17.1478 H   0  0  0  0  0  0  0  0  0  0  0  0
   43.9817   10.5825   16.9095 H   0  0  0  0  0  0  0  0  0  0  0  0
   39.9822   11.6715   15.6827 H   0  0  0  0  0  0  0  0  0  0  0  0
   40.9045    7.5617   16.6496 H   0  0  0  0  0  0  0  0  0  0  0  0
   41.1451   16.8203   15.3811 H   0  0  0  0  0  0  0  0  0  0  0  0
   42.3942   17.9398   14.7257 H   0  0  0  0  0  0  0  0  0  0  0  0
   38.2280    9.4464   16.5372 H   0  0  0  0  0  0  0  0  0  0  0  0
   36.4673    8.4965   15.3129 H   0  0  0  0  0  0  0  0  0  0  0  0
   37.3207    6.8681   12.9512 H   0  0  0  0  0  0  0  0  0  0  0  0
   35.5612    6.3293   15.1149 H   0  0  0  0  0  0  0  0  0  0  0  0
   34.5336    6.5316   13.6556 H   0  0  0  0  0  0  0  0  0  0  0  0
   35.8664    5.3274   13.6556 H   0  0  0  0  0  0  0  0  0  0  0  0
   35.2150    9.0450   13.0751 H   0  0  0  0  0  0  0  0  0  0  0  0
   36.5361    8.8046   11.8820 H   0  0  0  0  0  0  0  0  0  0  0  0
   35.1149    7.7059   11.8820 H   0  0  0  0  0  0  0  0  0  0  0  0
  1  2  2  0
  1  6  1  0
  1 28  1  0
  2  3  1  0
  2 29  1  0
  3  4  2  0
  3  7  1  0
  4  5  1  0
  4 30  1  0
  5  6  2  0
  5 21  1  0
  6 31  1  0
  7  8  1  0
  7 11  2  0
  8  9  1  0
  9 13  1  0
  9 10  2  0
 10 11  1  0
 10 16  1  0
 11 12  1  0
 13 15  1  0
 13 14  2  0
 16 17  1  0
 17 18  1  0
 17 32  1  0
 17 33  1  0
 18 20  1  0
 18 19  2  0
 21 22  1  0
 21 34  1  0
 22 23  2  0
 22 24  1  0
 24 25  1  0
 24 35  1  0
 25 26  1  0
 25 27  1  0
 25 36  1  0
 26 37  1  0
 26 38  1  0
 26 39  1  0
 27 40  1  0
 27 41  1  0
 27 42  1  0
M  CHG  2  15  -1  20  -1
M  END
>  <s_m_entry_id>  (1) 
1359

>  <MODEL>  (1) 
1

>  <REMARK>  (1) 
 VINA RESULT:    -7.429      0.000      0.000
 INTER + INTRA:         -10.835
 INTER:                 -10.470
 INTRA:                  -0.366
 UNBOUND:                -0.366
  Name = /scratch/kmzp800/tmpagdwabsg/tmpt1bh3yif.pdb
  9 active torsions:
  status: ('A' for Active; 'I' for Inactive)
    1  A    between atoms: C3_3  and  C4_4
    2  A    between atoms: C5_6  and  C6_7
    3  A    between atoms: C7_10  and  O3_11
    4  A    between atoms: O3_11  and  C8_12
    5  A    between atoms: C8_12  and  C9_13
    6  A    between atoms: C12_19  and  N1_20
    7  A    between atoms: N2_23  and  C14_24
    8  A    between atoms: C14_24  and  C15_25
    9  A    between atoms: C14_24  and  C16_26
                            x       y       z     vdW  Elec       q    Type
                         _______ _______ _______ _____ _____    ______ ____

>  <TORSDO>  (1) 
F 7

>  <grid_id>  (1) 
ptp1b-prepared

>  <grid_path>  (1) 
ptp1b_vina.pdbqt

>  <grid_filename>  (1) 
ptp1b_vina.pdbqt

>  <docking_score>  (1) 
-7.429

>  <compound_name>  (1) 
lig_23470

>  <index_string>  (1) 
13:0:0

>  <s_m_Source_Path>  (1) 
/projects/mai/users/kmzp800_harry/pmx_colab/docking_jobs/ptp1b/vina_prep

>  <s_m_Source_File>  (1) 
ptp1b_vina_naive_confs.sdf

>  <i_m_Source_File_Index>  (1) 
14

$$$$
