11:0:0
     RDKit          3D

 48 51  0  0  1  0  0  0  0  0999 V2000
   36.8540   36.0325   20.2890 F   0  0  0  0  0  0  0  0  0  0  0  0
   36.9030   35.9493   18.9408 C   0  0  0  0  0  0  0  0  0  0  0  0
   38.1520   36.1134   18.3148 C   0  0  0  0  0  0  0  0  0  0  0  0
   38.2777   35.9517   16.9248 C   0  0  0  0  0  0  0  0  0  0  0  0
   37.1403   35.6711   16.1512 C   0  0  0  0  0  0  0  0  0  0  0  0
   35.8788   35.5493   16.7621 C   0  0  0  0  0  0  0  0  0  0  0  0
   35.7453   35.6782   18.1617 C   0  0  0  0  0  0  0  0  0  0  0  0
   34.3542   35.4928   18.7664 C   0  0  0  0  0  0  0  0  0  0  0  0
   34.1485   36.0901   20.1528 C   0  0  0  0  0  0  0  0  0  0  0  0
   34.1940   37.4252   20.3316 C   0  0  0  0  0  0  0  0  0  0  0  0
   33.9621   35.1765   21.2950 C   0  0  0  0  0  0  0  0  0  0  0  0
   34.0007   33.9504   21.1563 O   0  0  0  0  0  0  0  0  0  0  0  0
   33.7743   35.7536   22.5205 N   0  0  0  0  0  0  0  0  0  0  0  0
   33.5297   34.9047   23.6989 C   0  0  0  0  0  0  0  0  0  0  0  0
   33.8426   37.1681   22.7499 C   0  0  0  0  0  0  0  0  0  0  0  0
   34.0766   38.0182   21.6521 C   0  0  0  0  0  0  0  0  0  0  0  0
   33.7101   37.7028   23.9831 N   0  0  0  0  0  0  0  0  0  0  0  0
   33.8438   39.0206   24.1231 C   0  0  0  0  0  0  0  0  0  0  0  0
   34.1254   39.8956   23.1572 N   0  0  0  0  0  0  0  0  0  0  0  0
   34.2272   39.3944   21.9093 C   0  0  0  0  0  0  0  0  0  0  0  0
   33.6625   39.5493   25.3842 N   0  0  0  0  0  0  0  0  0  0  0  0
   33.0512   38.8420   26.5040 C   0  0  0  0  0  0  0  0  0  0  0  0
   33.3139   39.5813   27.8229 C   0  0  0  0  0  0  0  0  0  0  0  0
   32.6241   38.8548   28.9877 C   0  0  0  0  0  0  0  0  0  0  0  0
   31.2271   38.7493   28.7353 O   0  0  0  0  0  0  0  0  0  0  0  0
   30.9181   37.9982   27.5647 C   0  0  0  0  0  0  0  0  0  0  0  0
   31.5310   38.6759   26.3271 C   0  0  0  0  0  0  0  0  0  0  0  0
   39.0250   36.3483   18.9075 H   0  0  0  0  0  0  0  0  0  0  0  0
   39.2438   36.0619   16.4554 H   0  0  0  0  0  0  0  0  0  0  0  0
   37.2408   35.5585   15.0889 H   0  0  0  0  0  0  0  0  0  0  0  0
   35.0113   35.3444   16.1500 H   0  0  0  0  0  0  0  0  0  0  0  0
   33.6195   35.9494   18.1035 H   0  0  0  0  0  0  0  0  0  0  0  0
   34.1112   34.4303   18.7493 H   0  0  0  0  0  0  0  0  0  0  0  0
   34.3556   38.0829   19.4892 H   0  0  0  0  0  0  0  0  0  0  0  0
   34.2671   35.1183   24.4769 H   0  0  0  0  0  0  0  0  0  0  0  0
   32.5402   35.1220   24.1093 H   0  0  0  0  0  0  0  0  0  0  0  0
   33.5739   33.8283   23.5143 H   0  0  0  0  0  0  0  0  0  0  0  0
   34.4334   40.0973   21.1151 H   0  0  0  0  0  0  0  0  0  0  0  0
   33.7518   40.5582   25.4735 H   0  0  0  0  0  0  0  0  0  0  0  0
   33.5079   37.8530   26.5742 H   0  0  0  0  0  0  0  0  0  0  0  0
   34.3857   39.6512   28.0103 H   0  0  0  0  0  0  0  0  0  0  0  0
   32.9385   40.6040   27.7623 H   0  0  0  0  0  0  0  0  0  0  0  0
   33.0529   37.8627   29.1341 H   0  0  0  0  0  0  0  0  0  0  0  0
   32.7719   39.4092   29.9146 H   0  0  0  0  0  0  0  0  0  0  0  0
   31.2823   36.9751   27.6694 H   0  0  0  0  0  0  0  0  0  0  0  0
   29.8340   37.9409   27.4644 H   0  0  0  0  0  0  0  0  0  0  0  0
   31.0632   39.6503   26.1792 H   0  0  0  0  0  0  0  0  0  0  0  0
   31.3067   38.0844   25.4386 H   0  0  0  0  0  0  0  0  0  0  0  0
  1  2  1  0
  2  7  2  0
  2  3  1  0
  3  4  2  0
  3 28  1  0
  4  5  1  0
  4 29  1  0
  5  6  2  0
  5 30  1  0
  6  7  1  0
  6 31  1  0
  7  8  1  0
  8  9  1  0
  8 32  1  0
  8 33  1  0
  9 10  2  0
  9 11  1  0
 10 16  1  0
 10 34  1  0
 11 12  2  0
 11 13  1  0
 13 14  1  0
 13 15  1  0
 14 35  1  0
 14 36  1  0
 14 37  1  0
 15 16  2  0
 15 17  1  0
 16 20  1  0
 17 18  2  0
 18 19  1  0
 18 21  1  0
 19 20  2  0
 20 38  1  0
 21 22  1  0
 21 39  1  0
 22 27  1  0
 22 23  1  0
 22 40  1  0
 23 24  1  0
 23 41  1  0
 23 42  1  0
 24 25  1  0
 24 43  1  0
 24 44  1  0
 25 26  1  0
 26 27  1  0
 26 45  1  0
 26 46  1  0
 27 47  1  0
 27 48  1  0
M  END
>  <s_m_entry_id>  (1) 
728

>  <i_f3d_flags>  (1) 
0

>  <r_lp_tautomer_probability>  (1) 
1

>  <r_epik_Ionization_Penalty>  (1) 
  0.0000

>  <r_epik_State_Penalty>  (1) 
  0.0000

>  <i_epik_Tot_Q>  (1) 
0

>  <s_m_job_name>  (1) 
glide-dock_SP_p38_all_ligs_no_cons_10_poses

>  <r_i_docking_score>  (1) 
-7.87105482982899

>  <r_i_glide_gscore>  (1) 
-7.87105482982899

>  <r_i_glide_emodel>  (1) 
-64.2557575232088

>  <index_string>  (1) 
11:0:0

$$$$
