7:0:0
     RDKit          3D

 49 51  0  0  1  0  0  0  0  0999 V2000
   39.1990   17.5230   12.6799 O   0  0  0  0  0  0  0  0  0  0  0  0
   40.3640   17.0640   12.6828 C   0  0  0  0  0  0  0  0  0  0  0  0
   41.2253   17.3083   11.8101 O   0  0  0  0  0  0  0  0  0  0  0  0
   40.7584   16.1446   13.8454 C   0  0  0  0  0  0  0  0  0  0  0  0
   42.1180   15.7357   13.7454 O   0  0  0  0  0  0  0  0  0  0  0  0
   42.5212   14.9255   14.7498 C   0  0  0  0  0  0  0  0  0  0  0  0
   42.1669   13.5631   14.8834 C   0  0  0  0  0  0  0  0  0  0  0  0
   41.1758   12.6866   13.5397 Br  0  0  0  0  0  0  0  0  0  0  0  0
   42.6091   12.9382   16.0109 C   0  0  0  0  0  0  0  0  0  0  0  0
   42.3388   11.5894   16.4825 C   0  0  0  0  0  0  0  0  0  0  0  0
   43.3864   10.7683   16.9459 C   0  0  0  0  0  0  0  0  0  0  0  0
   43.1265    9.4593   17.3792 C   0  0  0  0  0  0  0  0  0  0  0  0
   41.8179    8.9605   17.3412 C   0  0  0  0  0  0  0  0  0  0  0  0
   40.7582    9.7559   16.8717 C   0  0  0  0  0  0  0  0  0  0  0  0
   39.4547    9.2525   16.8446 N   0  0  0  0  0  0  0  0  0  0  0  0
   39.1912    7.8262   17.0036 C   0  0  0  0  0  0  0  0  0  0  0  0
   37.6934    7.5891   17.2413 C   0  0  0  0  0  0  0  0  0  0  0  0
   36.8765    7.9071   15.9771 C   0  0  0  0  0  0  0  0  0  0  0  0
   37.3719    7.1314   14.8312 N   0  0  0  0  0  0  0  0  0  0  0  0
   38.7960    7.3677   14.5278 C   0  0  0  0  0  0  0  0  0  0  0  0
   39.6658    7.0414   15.7598 C   0  0  0  0  0  0  0  0  0  0  0  0
   41.0210   11.0794   16.4665 C   0  0  0  0  0  0  0  0  0  0  0  0
   43.6243   14.0141   16.9243 S   0  0  0  0  0  0  0  0  0  0  0  0
   43.3522   15.3096   15.7678 C   0  0  0  0  0  0  0  0  0  0  0  0
   44.0104   16.5873   16.0458 C   0  0  0  0  0  0  0  0  0  0  0  0
   43.8425   17.5475   15.2656 O   0  0  0  0  0  0  0  0  0  0  0  0
   44.7503   16.6862   17.0476 O   0  0  0  0  0  0  0  0  0  0  0  0
   40.1264   15.2690   13.8277 H   0  0  0  0  0  0  0  0  0  0  0  0
   40.5799   16.6589   14.7967 H   0  0  0  0  0  0  0  0  0  0  0  0
   44.3993   11.1417   16.9732 H   0  0  0  0  0  0  0  0  0  0  0  0
   43.9268    8.8303   17.7446 H   0  0  0  0  0  0  0  0  0  0  0  0
   41.6459    7.9448   17.6733 H   0  0  0  0  0  0  0  0  0  0  0  0
   38.6643    9.8748   16.7310 H   0  0  0  0  0  0  0  0  0  0  0  0
   39.7338    7.4811   17.8813 H   0  0  0  0  0  0  0  0  0  0  0  0
   37.3499    8.2007   18.0772 H   0  0  0  0  0  0  0  0  0  0  0  0
   37.5274    6.5536   17.5331 H   0  0  0  0  0  0  0  0  0  0  0  0
   36.9422    8.9699   15.7377 H   0  0  0  0  0  0  0  0  0  0  0  0
   35.8267    7.7250   16.1915 H   0  0  0  0  0  0  0  0  0  0  0  0
   39.1536    6.7716   13.6858 H   0  0  0  0  0  0  0  0  0  0  0  0
   38.9396    8.4080   14.2363 H   0  0  0  0  0  0  0  0  0  0  0  0
   39.6221    5.9734   15.9701 H   0  0  0  0  0  0  0  0  0  0  0  0
   40.7158    7.2599   15.5500 H   0  0  0  0  0  0  0  0  0  0  0  0
   40.2213   11.7128   16.1237 H   0  0  0  0  0  0  0  0  0  0  0  0
   35.1394    6.0774   14.5182 C   0  0  0  0  0  0  0  0  0  0  0  0
   36.5920    6.3010   14.0938 C   0  0  0  0  0  0  0  0  0  0  0  0
   36.9957    5.7147   13.0888 O   0  0  0  0  0  0  0  0  0  0  0  0
   35.0897    5.6840   15.5331 H   0  0  0  0  0  0  0  0  0  0  0  0
   34.6446    5.3640   13.8592 H   0  0  0  0  0  0  0  0  0  0  0  0
   34.5838    7.0145   14.4710 H   0  0  0  0  0  0  0  0  0  0  0  0
  1  2  2  0
  2  3  1  0
  2  4  1  0
  4  5  1  0
  4 28  1  0
  4 29  1  0
  5  6  1  0
  6  7  1  0
  6 24  2  0
  7  8  1  0
  7  9  2  0
  9 10  1  0
  9 23  1  0
 10 11  2  0
 10 22  1  0
 11 12  1  0
 11 30  1  0
 12 13  2  0
 12 31  1  0
 13 14  1  0
 13 32  1  0
 14 15  1  0
 14 22  2  0
 15 16  1  0
 15 33  1  0
 16 17  1  0
 16 21  1  0
 16 34  1  0
 17 18  1  0
 17 35  1  0
 17 36  1  0
 18 19  1  0
 18 37  1  0
 18 38  1  0
 19 20  1  0
 19 45  1  0
 20 21  1  0
 20 39  1  0
 20 40  1  0
 21 41  1  0
 21 42  1  0
 22 43  1  0
 23 24  1  0
 24 25  1  0
 25 26  2  0
 25 27  1  0
 44 45  1  0
 44 47  1  0
 44 48  1  0
 44 49  1  0
 45 46  2  0
M  CHG  2   3  -1  27  -1
M  END
>  <s_m_entry_id>  (1) 
524

>  <s_m_Source_Path>  (1) 
/projects/mai/users/kmzp800_harry/pmx_colab/docking_jobs/ptp1b/glide-dock_SP_ptp1b_mcs_2

>  <s_m_Source_File>  (1) 
glide-dock_SP_ptp1b_mcs_2_pv.maegz

>  <i_m_Source_File_Index>  (1) 
9

>  <r_i_docking_score>  (1) 
-6.76393902386105

>  <r_i_glide_gscore>  (1) 
-6.76393902386105

>  <r_i_glide_emodel>  (1) 
-87.5571992865605

>  <index_string>  (1) 
7:0:0

$$$$
