1:0:0
     RDKit          3D

 48 51  0  0  1  0  0  0  0  0999 V2000
   -4.5591   -3.1559   15.5350 C   0  0  0  0  0  0  0  0  0  0  0  0
   -3.9059   -2.2228   14.6836 O   0  0  0  0  0  0  0  0  0  0  0  0
   -2.5419   -2.0604   14.8224 C   0  0  0  0  0  0  0  0  0  0  0  0
   -1.7475   -2.8288   15.7070 C   0  0  0  0  0  0  0  0  0  0  0  0
   -0.3689   -2.5859   15.8176 C   0  0  0  0  0  0  0  0  0  0  0  0
    0.2481   -1.5684   15.0675 C   0  0  0  0  0  0  0  0  0  0  0  0
    1.6157   -1.3424   15.2922 N   0  0  0  0  0  0  0  0  0  0  0  0
    2.5283   -0.4308   14.7280 C   0  0  0  0  0  0  0  0  0  0  0  0
    2.1836    0.3960   13.7731 N   0  0  0  0  0  0  0  0  0  0  0  0
    3.1216    1.2594   13.2405 C   0  0  0  0  0  0  0  0  0  0  0  0
    4.4276    1.2872   13.6792 C   0  0  0  0  0  0  0  0  0  0  0  0
    4.7646    0.4827   14.7158 N   0  0  0  0  0  0  0  0  0  0  0  0
    5.9130    0.3753   15.4757 C   0  0  0  0  0  0  0  0  0  0  0  0
    5.6132   -0.4999   16.4881 C   0  0  0  0  0  0  0  0  0  0  0  0
    4.3639   -1.0602   16.3193 N   0  0  0  0  0  0  0  0  0  0  0  0
    3.8341   -0.4160   15.2879 C   0  0  0  0  0  0  0  0  0  0  0  0
    2.6526    2.1630   12.1601 C   0  0  0  0  0  0  0  0  0  0  0  0
    1.2960    2.5506   12.0713 C   0  0  0  0  0  0  0  0  0  0  0  0
    0.8778    3.3895   11.0194 C   0  0  0  0  0  0  0  0  0  0  0  0
    1.7930    3.8540   10.0463 C   0  0  0  0  0  0  0  0  0  0  0  0
    3.1469    3.4849   10.1353 C   0  0  0  0  0  0  0  0  0  0  0  0
    3.5627    2.6541   11.1884 C   0  0  0  0  0  0  0  0  0  0  0  0
    1.3123    4.7900    8.9915 C   0  0  0  0  0  0  0  0  0  0  0  0
    0.2613    4.5860    8.3874 O   0  0  0  0  0  0  0  0  0  0  0  0
    2.0660    5.8723    8.7929 N   0  0  0  0  0  0  0  0  0  0  0  0
   -0.5406   -0.8228   14.1670 C   0  0  0  0  0  0  0  0  0  0  0  0
   -1.9279   -1.0579   14.0393 C   0  0  0  0  0  0  0  0  0  0  0  0
   -2.7390   -0.3193   13.2014 O   0  0  0  0  0  0  0  0  0  0  0  0
   -2.1636    0.6740   12.3622 C   0  0  0  0  0  0  0  0  0  0  0  0
   -5.6315   -3.1498   15.3347 H   0  0  0  0  0  0  0  0  0  0  0  0
   -4.2014   -4.1720   15.3601 H   0  0  0  0  0  0  0  0  0  0  0  0
   -4.4194   -2.8948   16.5851 H   0  0  0  0  0  0  0  0  0  0  0  0
   -2.1701   -3.6026   16.3313 H   0  0  0  0  0  0  0  0  0  0  0  0
    0.2103   -3.1835   16.5059 H   0  0  0  0  0  0  0  0  0  0  0  0
    2.0224   -1.8915   16.0399 H   0  0  0  0  0  0  0  0  0  0  0  0
    5.1916    1.9598   13.3079 H   0  0  0  0  0  0  0  0  0  0  0  0
    6.7796    0.9808   15.2499 H   0  0  0  0  0  0  0  0  0  0  0  0
    6.1546   -0.7819   17.3683 H   0  0  0  0  0  0  0  0  0  0  0  0
    0.5841    2.2030   12.8065 H   0  0  0  0  0  0  0  0  0  0  0  0
   -0.1565    3.6911   10.9702 H   0  0  0  0  0  0  0  0  0  0  0  0
    3.8719    3.8316    9.4110 H   0  0  0  0  0  0  0  0  0  0  0  0
    4.6028    2.3682   11.2206 H   0  0  0  0  0  0  0  0  0  0  0  0
    1.7789    6.5540    8.1085 H   0  0  0  0  0  0  0  0  0  0  0  0
    2.8856    6.0231    9.3629 H   0  0  0  0  0  0  0  0  0  0  0  0
   -0.0955   -0.0480   13.5767 H   0  0  0  0  0  0  0  0  0  0  0  0
   -2.9467    1.1317   11.7550 H   0  0  0  0  0  0  0  0  0  0  0  0
   -1.6983    1.4689   12.9467 H   0  0  0  0  0  0  0  0  0  0  0  0
   -1.4308    0.2415   11.6782 H   0  0  0  0  0  0  0  0  0  0  0  0
  1  2  1  0
  1 30  1  0
  1 31  1  0
  1 32  1  0
  2  3  1  0
  3  4  2  0
  3 27  1  0
  4  5  1  0
  4 33  1  0
  5  6  2  0
  5 34  1  0
  6  7  1  0
  6 26  1  0
  7  8  1  0
  7 35  1  0
  8  9  2  0
  8 16  1  0
  9 10  1  0
 10 11  2  0
 10 17  1  0
 11 12  1  0
 11 36  1  0
 12 13  1  0
 12 16  1  0
 13 14  2  0
 13 37  1  0
 14 15  1  0
 14 38  1  0
 15 16  2  0
 17 18  2  0
 17 22  1  0
 18 19  1  0
 18 39  1  0
 19 20  2  0
 19 40  1  0
 20 21  1  0
 20 23  1  0
 21 22  2  0
 21 41  1  0
 22 42  1  0
 23 24  2  0
 23 25  1  0
 25 43  1  0
 25 44  1  0
 26 27  2  0
 26 45  1  0
 27 28  1  0
 28 29  1  0
 29 46  1  0
 29 47  1  0
 29 48  1  0
M  END
>  <s_m_entry_id>  (1) 
1104

>  <IC50[nM]>  (1) 
17.7

>  <s_m_Source_Path>  (1) 
/projects/mai/users/kmzp800_harry/pmx_colab/docking_jobs/syk

>  <s_m_Source_File>  (1) 
tnks2_lig.sdf

>  <i_m_Source_File_Index>  (1) 
2

>  <s_m_job_name>  (1) 
glide-dock_SP_syk_mcs

>  <r_i_docking_score>  (1) 
-6.78564481110369

>  <r_i_glide_gscore>  (1) 
-6.78564481110369

>  <r_i_glide_emodel>  (1) 
-47.0588902502795

>  <index_string>  (1) 
1:0:0

$$$$
