2:0:0
     RDKit          3D

 46 49  0  0  1  0  0  0  0  0999 V2000
   32.7304   34.6266   14.3985 F   0  0  0  0  0  0  0  0  0  0  0  0
   33.4542   34.8795   15.5152 C   0  0  0  0  0  0  0  0  0  0  0  0
   34.8539   34.8867   15.4891 C   0  0  0  0  0  0  0  0  0  0  0  0
   35.5994   35.1485   16.6461 C   0  0  0  0  0  0  0  0  0  0  0  0
   36.9490   35.2107   16.5660 F   0  0  0  0  0  0  0  0  0  0  0  0
   34.9447   35.2360   17.8889 C   0  0  0  0  0  0  0  0  0  0  0  0
   33.5333   35.2486   17.9200 C   0  0  0  0  0  0  0  0  0  0  0  0
   32.8094   35.1495   16.7222 C   0  0  0  0  0  0  0  0  0  0  0  0
   35.7003   35.2302   19.0321 O   0  0  0  0  0  0  0  0  0  0  0  0
   35.1740   35.8221   20.1408 C   0  0  0  0  0  0  0  0  0  0  0  0
   35.2727   37.1533   20.2627 C   0  0  0  0  0  0  0  0  0  0  0  0
   34.5494   34.9919   21.1750 C   0  0  0  0  0  0  0  0  0  0  0  0
   34.3169   33.8020   20.9731 O   0  0  0  0  0  0  0  0  0  0  0  0
   34.2204   35.6205   22.3420 N   0  0  0  0  0  0  0  0  0  0  0  0
   33.7028   34.8372   23.4742 C   0  0  0  0  0  0  0  0  0  0  0  0
   34.3150   37.0398   22.5271 C   0  0  0  0  0  0  0  0  0  0  0  0
   34.8179   37.8272   21.4714 C   0  0  0  0  0  0  0  0  0  0  0  0
   33.9363   37.6365   23.6772 N   0  0  0  0  0  0  0  0  0  0  0  0
   34.0388   38.9600   23.7683 C   0  0  0  0  0  0  0  0  0  0  0  0
   34.4787   39.7897   22.8244 N   0  0  0  0  0  0  0  0  0  0  0  0
   34.8670   39.2220   21.6637 C   0  0  0  0  0  0  0  0  0  0  0  0
   33.6677   39.5510   24.9535 N   0  0  0  0  0  0  0  0  0  0  0  0
   33.1676   38.8718   26.1377 C   0  0  0  0  0  0  0  0  0  0  0  0
   33.2735   39.7940   27.3604 C   0  0  0  0  0  0  0  0  0  0  0  0
   32.6916   39.1097   28.6039 C   0  0  0  0  0  0  0  0  0  0  0  0
   31.3400   38.7376   28.3576 O   0  0  0  0  0  0  0  0  0  0  0  0
   31.1891   37.8141   27.2833 C   0  0  0  0  0  0  0  0  0  0  0  0
   31.7017   38.4386   25.9767 C   0  0  0  0  0  0  0  0  0  0  0  0
   35.3520   34.6979   14.5631 H   0  0  0  0  0  0  0  0  0  0  0  0
   32.9828   35.3285   18.8449 H   0  0  0  0  0  0  0  0  0  0  0  0
   31.7322   35.1494   16.7617 H   0  0  0  0  0  0  0  0  0  0  0  0
   35.7400   37.7544   19.4938 H   0  0  0  0  0  0  0  0  0  0  0  0
   32.6923   35.1633   23.7249 H   0  0  0  0  0  0  0  0  0  0  0  0
   33.6666   33.7597   23.3093 H   0  0  0  0  0  0  0  0  0  0  0  0
   34.3297   34.9997   24.3523 H   0  0  0  0  0  0  0  0  0  0  0  0
   35.2350   39.8830   20.8935 H   0  0  0  0  0  0  0  0  0  0  0  0
   33.7781   40.5561   25.0232 H   0  0  0  0  0  0  0  0  0  0  0  0
   33.7869   37.9903   26.3120 H   0  0  0  0  0  0  0  0  0  0  0  0
   34.3120   40.0766   27.5380 H   0  0  0  0  0  0  0  0  0  0  0  0
   32.7220   40.7178   27.1780 H   0  0  0  0  0  0  0  0  0  0  0  0
   33.2833   38.2360   28.8816 H   0  0  0  0  0  0  0  0  0  0  0  0
   32.7167   39.7969   29.4501 H   0  0  0  0  0  0  0  0  0  0  0  0
   31.7211   36.8875   27.5044 H   0  0  0  0  0  0  0  0  0  0  0  0
   30.1344   37.5588   27.1850 H   0  0  0  0  0  0  0  0  0  0  0  0
   31.0821   39.2993   25.7192 H   0  0  0  0  0  0  0  0  0  0  0  0
   31.5989   37.7235   25.1601 H   0  0  0  0  0  0  0  0  0  0  0  0
  1  2  1  0
  2  8  2  0
  2  3  1  0
  3  4  2  0
  3 29  1  0
  4  5  1  0
  4  6  1  0
  6  7  2  0
  6  9  1  0
  7  8  1  0
  7 30  1  0
  8 31  1  0
  9 10  1  0
 10 11  2  0
 10 12  1  0
 11 17  1  0
 11 32  1  0
 12 13  2  0
 12 14  1  0
 14 15  1  0
 14 16  1  0
 15 33  1  0
 15 34  1  0
 15 35  1  0
 16 17  2  0
 16 18  1  0
 17 21  1  0
 18 19  2  0
 19 20  1  0
 19 22  1  0
 20 21  2  0
 21 36  1  0
 22 23  1  0
 22 37  1  0
 23 28  1  0
 23 24  1  0
 23 38  1  0
 24 25  1  0
 24 39  1  0
 24 40  1  0
 25 26  1  0
 25 41  1  0
 25 42  1  0
 26 27  1  0
 27 28  1  0
 27 43  1  0
 27 44  1  0
 28 45  1  0
 28 46  1  0
M  END
>  <s_m_entry_id>  (1) 
274

>  <i_f3d_flags>  (1) 
0

>  <r_lp_tautomer_probability>  (1) 
1

>  <r_epik_Ionization_Penalty>  (1) 
  0.0000

>  <r_epik_State_Penalty>  (1) 
  0.0000

>  <i_epik_Tot_Q>  (1) 
0

>  <s_m_job_name>  (1) 
glide-dock_SP_p38_core_cons_top_1

>  <r_i_docking_score>  (1) 
-6.48261872379036

>  <r_i_glide_gscore>  (1) 
-6.48261872379036

>  <r_i_glide_emodel>  (1) 
-42.468077691151

>  <index_string>  (1) 
2:0:0

$$$$
