29:0:0
     RDKit          3D

 55 60  0  0  1  0  0  0  0  0999 V2000
    5.7800   -0.5800   16.2200 C   0  0  0  0  0  0  0  0  0  0  0  0
    4.5100   -1.0580   16.2130 N   0  0  0  0  0  0  0  0  0  0  0  0
    3.9110   -0.3500   15.2390 C   0  0  0  0  0  0  0  0  0  0  0  0
    2.5870   -0.4560   14.8240 C   0  0  0  0  0  0  0  0  0  0  0  0
    1.7010   -1.3970   15.4480 N   0  0  0  0  0  0  0  0  0  0  0  0
    2.1740    0.3600   13.8100 N   0  0  0  0  0  0  0  0  0  0  0  0
    3.0140    1.2610   13.2070 C   0  0  0  0  0  0  0  0  0  0  0  0
    4.3490    1.3480   13.6480 C   0  0  0  0  0  0  0  0  0  0  0  0
    4.7320    0.5260   14.6540 N   0  0  0  0  0  0  0  0  0  0  0  0
    5.9250    0.4090   15.2500 C   0  0  0  0  0  0  0  0  0  0  0  0
    2.5140    2.1200   12.1140 C   0  0  0  0  0  0  0  0  0  0  0  0
    3.4020    2.6370   11.1340 C   0  0  0  0  0  0  0  0  0  0  0  0
    2.9350    3.4560   10.0900 C   0  0  0  0  0  0  0  0  0  0  0  0
    1.5740    3.7350   10.0620 C   0  0  0  0  0  0  0  0  0  0  0  0
    0.8160    4.4850    9.1940 C   0  0  0  0  0  0  0  0  0  0  0  0
   -0.4650    4.4170    9.6380 N   0  0  0  0  0  0  0  0  0  0  0  0
   -0.5330    3.6640   10.7320 N   0  0  0  0  0  0  0  0  0  0  0  0
    0.7120    3.2440   10.9940 C   0  0  0  0  0  0  0  0  0  0  0  0
    1.1370    2.4320   12.0410 C   0  0  0  0  0  0  0  0  0  0  0  0
    0.3180   -1.6190   15.1360 C   0  0  0  0  0  0  0  0  0  0  0  0
   -0.4210   -0.7240   14.3510 C   0  0  0  0  0  0  0  0  0  0  0  0
   -1.7670   -0.9740   14.0700 C   0  0  0  0  0  0  0  0  0  0  0  0
   -2.3990   -2.1240   14.5690 C   0  0  0  0  0  0  0  0  0  0  0  0
   -1.6520   -3.0170   15.3560 C   0  0  0  0  0  0  0  0  0  0  0  0
   -0.3080   -2.7650   15.6370 C   0  0  0  0  0  0  0  0  0  0  0  0
   -3.7870   -2.3860   14.2770 N   0  0  0  0  0  0  0  0  0  0  0  0
   -4.7910   -2.3170   15.3440 C   0  0  0  0  0  0  0  0  0  0  0  0
   -5.8000   -3.4640   15.2570 C   0  0  0  0  0  0  0  0  0  0  0  0
   -5.1540   -4.6630   14.9300 O   0  0  0  0  0  0  0  0  0  0  0  0
   -5.3870   -4.8390   13.5590 C   0  0  0  0  0  0  0  0  0  0  0  0
   -4.2540   -4.2290   12.7360 C   0  0  0  0  0  0  0  0  0  0  0  0
   -4.2080   -2.7150   12.9150 C   0  0  0  0  0  0  0  0  0  0  0  0
    6.5788   -0.9236   16.8937 H   0  0  0  0  0  0  0  0  0  0  0  0
    2.1008   -1.9752   16.2008 H   0  0  0  0  0  0  0  0  0  0  0  0
    5.0548    2.0578   13.1919 H   0  0  0  0  0  0  0  0  0  0  0  0
    6.8369    0.9795   15.0198 H   0  0  0  0  0  0  0  0  0  0  0  0
    4.4730    2.3930   11.1922 H   0  0  0  0  0  0  0  0  0  0  0  0
    3.6184    3.8586    9.3279 H   0  0  0  0  0  0  0  0  0  0  0  0
    1.1773    5.0334    8.3115 H   0  0  0  0  0  0  0  0  0  0  0  0
   -1.3809    3.4454   11.2744 H   0  0  0  0  0  0  0  0  0  0  0  0
    0.4260    2.0461   12.7863 H   0  0  0  0  0  0  0  0  0  0  0  0
    0.0613    0.1811   13.9534 H   0  0  0  0  0  0  0  0  0  0  0  0
   -2.3362   -0.2635   13.4525 H   0  0  0  0  0  0  0  0  0  0  0  0
   -2.1310   -3.9235   15.7545 H   0  0  0  0  0  0  0  0  0  0  0  0
    0.2625   -3.4725   16.2566 H   0  0  0  0  0  0  0  0  0  0  0  0
   -4.2796   -2.3670   16.3166 H   0  0  0  0  0  0  0  0  0  0  0  0
   -5.3414   -1.3712   15.2319 H   0  0  0  0  0  0  0  0  0  0  0  0
   -6.3034   -3.5775   16.2284 H   0  0  0  0  0  0  0  0  0  0  0  0
   -6.5357   -3.2314   14.4730 H   0  0  0  0  0  0  0  0  0  0  0  0
   -5.4541   -5.9148   13.3393 H   0  0  0  0  0  0  0  0  0  0  0  0
   -6.3281   -4.3356   13.2928 H   0  0  0  0  0  0  0  0  0  0  0  0
   -3.2970   -4.6601   13.0649 H   0  0  0  0  0  0  0  0  0  0  0  0
   -4.4302   -4.4529   11.6736 H   0  0  0  0  0  0  0  0  0  0  0  0
   -5.2082   -2.2957   12.7313 H   0  0  0  0  0  0  0  0  0  0  0  0
   -3.4883   -2.2881   12.2010 H   0  0  0  0  0  0  0  0  0  0  0  0
  1  2  1  0
  1 10  2  0
  2  3  2  0
  3  4  1  0
  3  9  1  0
  4  5  1  0
  4  6  2  0
  5 20  1  0
  6  7  1  0
  7  8  2  0
  7 11  1  0
  8  9  1  0
  9 10  1  0
 11 12  2  0
 11 19  1  0
 12 13  1  0
 13 14  2  0
 14 18  1  0
 14 15  1  0
 15 16  2  0
 16 17  1  0
 17 18  1  0
 18 19  2  0
 20 25  1  0
 20 21  2  0
 21 22  1  0
 22 23  2  0
 23 24  1  0
 23 26  1  0
 24 25  2  0
 26 27  1  0
 26 32  1  0
 27 28  1  0
 28 29  1  0
 29 30  1  0
 30 31  1  0
 31 32  1  0
  1 33  1  0
  5 34  1  0
  8 35  1  0
 10 36  1  0
 12 37  1  0
 13 38  1  0
 15 39  1  0
 17 40  1  0
 19 41  1  0
 21 42  1  0
 22 43  1  0
 24 44  1  0
 25 45  1  0
 27 46  1  0
 27 47  1  0
 28 48  1  0
 28 49  1  0
 30 50  1  0
 30 51  1  0
 31 52  1  0
 31 53  1  0
 32 54  1  0
 32 55  1  0
M  END
>  <s_m_entry_id>  (1) 
30

>  <MODEL>  (1) 
1

>  <REMARK>  (1) 
 VINA RESULT:    -9.745      0.000      0.000
 INTER + INTRA:         -11.901
 INTER:                 -11.454
 INTRA:                  -0.446
 UNBOUND:                -0.446
  Name = /scratch/kmzp800/tmpe2tg37q0/tmpsqnz7o3z.pdb
  3 active torsions:
  status: ('A' for Active; 'I' for Inactive)
    1  A    between atoms: N2_5  and  C4_6
    2  A    between atoms: C7_9  and  N3_10
    3  A    between atoms: C15_20  and  C16_21
                            x       y       z     vdW  Elec       q    Type
                         _______ _______ _______ _____ _____    ______ ____

>  <TORSDO>  (1) 
F 3

>  <grid_id>  (1) 
syk-prepared

>  <grid_path>  (1) 
syk_vina.pdbqt

>  <grid_filename>  (1) 
syk_vina.pdbqt

>  <docking_score>  (1) 
-9.745

>  <compound_name>  (1) 
CHEMBL3265036

>  <index_string>  (1) 
29:0:0

>  <s_m_Source_Path>  (1) 
/projects/mai/users/kmzp800_harry/pmx_colab/docking_jobs/syk/vina_prep/output

>  <s_m_Source_File>  (1) 
ptp1b_docked_conformers.sdf

>  <i_m_Source_File_Index>  (1) 
30

$$$$
