12:0:0
     RDKit          3D

 53 55  0  0  1  0  0  0  0  0999 V2000
   43.2030    9.1180   17.4770 C   0  0  0  0  0  0  0  0  0  0  0  0
   43.4050   10.4070   16.9760 C   0  0  0  0  0  0  0  0  0  0  0  0
   42.3290   11.2930   16.8270 C   0  0  0  0  0  0  0  0  0  0  0  0
   41.0440   10.8560   17.1760 C   0  0  0  0  0  0  0  0  0  0  0  0
   40.8320    9.5620   17.6720 C   0  0  0  0  0  0  0  0  0  0  0  0
   41.9180    8.6970   17.8250 C   0  0  0  0  0  0  0  0  0  0  0  0
   42.5080   12.6510   16.2630 C   0  0  0  0  0  0  0  0  0  0  0  0
   43.4880   13.8230   16.9730 S   0  0  0  0  0  0  0  0  0  0  0  0
   43.2090   15.0330   15.8460 C   0  0  0  0  0  0  0  0  0  0  0  0
   42.3310   14.5470   14.8780 C   0  0  0  0  0  0  0  0  0  0  0  0
   41.9410   13.1980   15.0990 C   0  0  0  0  0  0  0  0  0  0  0  0
   40.8890   12.1630   13.8620 Br  0  0  0  0  0  0  0  0  0  0  0  0
   43.7990   16.3790   15.9040 C   0  0  0  0  0  0  0  0  0  0  0  0
   44.9950   16.5270   16.2680 O   0  0  0  0  0  0  0  0  0  0  0  0
   43.0490   17.4970   15.5620 O   0  0  0  0  0  0  0  0  0  0  0  0
   41.9250   15.3640   13.8130 O   0  0  0  0  0  0  0  0  0  0  0  0
   40.6100   15.8630   13.6340 C   0  0  0  0  0  0  0  0  0  0  0  0
   40.6530   17.0860   12.7910 C   0  0  0  0  0  0  0  0  0  0  0  0
   41.7590   17.5430   12.4020 O   0  0  0  0  0  0  0  0  0  0  0  0
   39.4770   17.7500   12.4690 O   0  0  0  0  0  0  0  0  0  0  0  0
   39.5200    9.1120   18.0260 N   0  0  0  0  0  0  0  0  0  0  0  0
   38.5000    8.7790   17.0380 C   0  0  0  0  0  0  0  0  0  0  0  0
   39.0910    7.9550   15.8990 C   0  0  0  0  0  0  0  0  0  0  0  0
   38.6300    8.4860   14.5270 C   0  0  0  0  0  0  0  0  0  0  0  0
   37.9340    7.4340   13.6640 C   0  0  0  0  0  0  0  0  0  0  0  0
   36.9430    6.7120   14.4610 N   0  0  0  0  0  0  0  0  0  0  0  0
   35.6220    6.5040   13.9480 C   0  0  0  0  0  0  0  0  0  0  0  0
   35.3110    6.9380   12.8050 O   0  0  0  0  0  0  0  0  0  0  0  0
   37.3080    6.1660   15.7700 C   0  0  0  0  0  0  0  0  0  0  0  0
   38.7680    6.4720   16.1130 C   0  0  0  0  0  0  0  0  0  0  0  0
   34.6780    5.8200   14.7190 O   0  0  0  0  0  0  0  0  0  0  0  0
   34.1710    4.5520   14.3350 C   0  0  0  0  0  0  0  0  0  0  0  0
   44.0567    8.4349   17.5972 H   0  0  0  0  0  0  0  0  0  0  0  0
   44.4186   10.7295   16.6958 H   0  0  0  0  0  0  0  0  0  0  0  0
   40.1892   11.5383   17.0590 H   0  0  0  0  0  0  0  0  0  0  0  0
   41.7607    7.6826   18.2202 H   0  0  0  0  0  0  0  0  0  0  0  0
   39.9923   15.0988   13.1396 H   0  0  0  0  0  0  0  0  0  0  0  0
   40.1754   16.1092   14.6141 H   0  0  0  0  0  0  0  0  0  0  0  0
   39.2854    9.0191   19.0246 H   0  0  0  0  0  0  0  0  0  0  0  0
   37.7027    8.1989   17.5256 H   0  0  0  0  0  0  0  0  0  0  0  0
   38.0968    9.7139   16.6217 H   0  0  0  0  0  0  0  0  0  0  0  0
   40.1863    8.0560   15.9032 H   0  0  0  0  0  0  0  0  0  0  0  0
   37.9293    9.3174   14.6938 H   0  0  0  0  0  0  0  0  0  0  0  0
   39.5332    8.8013   13.9840 H   0  0  0  0  0  0  0  0  0  0  0  0
   37.4322    7.9290   12.8195 H   0  0  0  0  0  0  0  0  0  0  0  0
   38.6830    6.7223   13.2865 H   0  0  0  0  0  0  0  0  0  0  0  0
   36.6586    6.6117   16.5378 H   0  0  0  0  0  0  0  0  0  0  0  0
   37.1804    5.0739   15.7384 H   0  0  0  0  0  0  0  0  0  0  0  0
   39.4221    5.8662   15.4687 H   0  0  0  0  0  0  0  0  0  0  0  0
   38.9338    6.2299   17.1731 H   0  0  0  0  0  0  0  0  0  0  0  0
   33.9357    3.9636   15.2341 H   0  0  0  0  0  0  0  0  0  0  0  0
   33.2581    4.6880   13.7366 H   0  0  0  0  0  0  0  0  0  0  0  0
   34.9260    4.0211   13.7366 H   0  0  0  0  0  0  0  0  0  0  0  0
  1  6  2  0
  1  2  1  0
  1 33  1  0
  2  3  2  0
  2 34  1  0
  3  4  1  0
  3  7  1  0
  4  5  2  0
  4 35  1  0
  5  6  1  0
  5 21  1  0
  6 36  1  0
  7  8  1  0
  7 11  2  0
  8  9  1  0
  9 13  1  0
  9 10  2  0
 10 11  1  0
 10 16  1  0
 11 12  1  0
 13 14  1  0
 13 15  2  0
 16 17  1  0
 17 18  1  0
 17 37  1  0
 17 38  1  0
 18 19  2  0
 18 20  1  0
 21 22  1  0
 21 39  1  0
 22 23  1  0
 22 40  1  0
 22 41  1  0
 23 30  1  0
 23 24  1  0
 23 42  1  0
 24 25  1  0
 24 43  1  0
 24 44  1  0
 25 26  1  0
 25 45  1  0
 25 46  1  0
 26 29  1  0
 26 27  1  0
 27 31  1  0
 27 28  2  0
 29 30  1  0
 29 47  1  0
 29 48  1  0
 30 49  1  0
 30 50  1  0
 31 32  1  0
 32 51  1  0
 32 52  1  0
 32 53  1  0
M  CHG  2  14  -1  20  -1
M  END
>  <s_m_entry_id>  (1) 
1229

>  <MODEL>  (1) 
2

>  <REMARK>  (1) 
 VINA RESULT:    -7.211      1.295      1.432
 INTER + INTRA:         -12.142
 INTER:                 -11.032
 INTRA:                  -1.110
 UNBOUND:                -1.138
  Name = /scratch/kmzp800/tmpvd81td7x/tmprop615uf.pdb
  10 active torsions:
  status: ('A' for Active; 'I' for Inactive)
    1  A    between atoms: C3_3  and  C4_4
    2  A    between atoms: C5_6  and  C6_7
    3  A    between atoms: C7_10  and  O3_11
    4  A    between atoms: O3_11  and  C8_12
    5  A    between atoms: C8_12  and  C9_13
    6  A    between atoms: C12_19  and  N1_20
    7  A    between atoms: N1_20  and  C13_21
    8  A    between atoms: C13_21  and  C14_22
    9  A    between atoms: C17_26  and  O7_28
   10  A    between atoms: O7_28  and  C18_29
                            x       y       z     vdW  Elec       q    Type
                         _______ _______ _______ _____ _____    ______ ____

>  <TORSDO>  (1) 
F 9

>  <grid_id>  (1) 
ptp1b-prepared

>  <grid_path>  (1) 
ptp1b_vina.pdbqt

>  <grid_filename>  (1) 
ptp1b_vina.pdbqt

>  <docking_score>  (1) 
-7.211

>  <compound_name>  (1) 
lig_23480

>  <index_string>  (1) 
12:0:0

>  <s_m_Source_Path>  (1) 
/projects/mai/users/kmzp800_harry/pmx_colab/docking_jobs/ptp1b

>  <s_m_Source_File>  (1) 
ptp1b_confs_vina_mcs.sdf

>  <i_m_Source_File_Index>  (1) 
13

$$$$
