30:0:0
     RDKit          3D

 46 49  0  0  1  0  0  0  0  0999 V2000
   34.5008   34.9426   21.0732 C   0  0  0  0  0  0  0  0  0  0  0  0
   34.1640   38.7349   23.9187 C   0  0  0  0  0  0  0  0  0  0  0  0
   34.8860   37.7407   21.5360 C   0  0  0  0  0  0  0  0  0  0  0  0
   35.2317   37.1428   20.2517 C   0  0  0  0  0  0  0  0  0  0  0  0
   34.4202   36.8925   22.5600 C   0  0  0  0  0  0  0  0  0  0  0  0
   34.9528   39.1218   21.8204 C   0  0  0  0  0  0  0  0  0  0  0  0
   35.0626   35.8169   20.0436 C   0  0  0  0  0  0  0  0  0  0  0  0
   33.8712   34.6177   23.4099 C   0  0  0  0  0  0  0  0  0  0  0  0
   34.5913   39.6203   23.0232 N   0  0  0  0  0  0  0  0  0  0  0  0
   34.2113   33.7703   20.8229 O   0  0  0  0  0  0  0  0  0  0  0  0
   34.3073   35.4883   22.3039 N   0  0  0  0  0  0  0  0  0  0  0  0
   34.0687   37.4208   23.7450 N   0  0  0  0  0  0  0  0  0  0  0  0
   33.7350   39.2344   25.1282 N   0  0  0  0  0  0  0  0  0  0  0  0
   35.6156   37.7979   19.4839 H   0  0  0  0  0  0  0  0  0  0  0  0
   35.2939   39.8313   21.0835 H   0  0  0  0  0  0  0  0  0  0  0  0
   32.7852   34.6681   23.5156 H   0  0  0  0  0  0  0  0  0  0  0  0
   34.1480   33.5686   23.2751 H   0  0  0  0  0  0  0  0  0  0  0  0
   34.3164   34.9256   24.3588 H   0  0  0  0  0  0  0  0  0  0  0  0
   33.7791   40.2381   25.2275 H   0  0  0  0  0  0  0  0  0  0  0  0
   33.8703   38.0096   28.1444 C   0  0  0  0  0  0  0  0  0  0  0  0
   33.2831   37.4528   26.8400 C   0  0  0  0  0  0  0  0  0  0  0  0
   32.7106   38.5435   25.9075 C   0  0  0  0  0  0  0  0  0  0  0  0
   31.8573   39.5288   26.7106 C   0  0  0  0  0  0  0  0  0  0  0  0
   32.6441   39.9930   27.9466 C   0  0  0  0  0  0  0  0  0  0  0  0
   32.9164   38.8630   28.7628 O   0  0  0  0  0  0  0  0  0  0  0  0
   34.1115   37.1927   28.8260 H   0  0  0  0  0  0  0  0  0  0  0  0
   34.8018   38.5461   27.9572 H   0  0  0  0  0  0  0  0  0  0  0  0
   32.4711   36.7764   27.1044 H   0  0  0  0  0  0  0  0  0  0  0  0
   34.0209   36.8348   26.3287 H   0  0  0  0  0  0  0  0  0  0  0  0
   32.0412   38.0620   25.1915 H   0  0  0  0  0  0  0  0  0  0  0  0
   31.5586   40.3780   26.0955 H   0  0  0  0  0  0  0  0  0  0  0  0
   30.9379   39.0421   27.0365 H   0  0  0  0  0  0  0  0  0  0  0  0
   32.1275   40.7489   28.5277 H   0  0  0  0  0  0  0  0  0  0  0  0
   33.5752   40.4719   27.6433 H   0  0  0  0  0  0  0  0  0  0  0  0
   35.3219   35.1981   18.8491 O   0  0  0  0  0  0  0  0  0  0  0  0
   37.8683   36.7070   15.8992 C   0  0  0  0  0  0  0  0  0  0  0  0
   38.4233   36.3535   17.1547 C   0  0  0  0  0  0  0  0  0  0  0  0
   37.5613   35.9966   18.2137 C   0  0  0  0  0  0  0  0  0  0  0  0
   36.2029   35.7085   17.9359 C   0  0  0  0  0  0  0  0  0  0  0  0
   35.7512   35.8100   16.6177 C   0  0  0  0  0  0  0  0  0  0  0  0
   36.5372   36.3909   15.6265 C   0  0  0  0  0  0  0  0  0  0  0  0
   38.5553   37.4113   14.9794 F   0  0  0  0  0  0  0  0  0  0  0  0
   39.4537   36.5933   17.3686 H   0  0  0  0  0  0  0  0  0  0  0  0
   38.0345   35.9489   19.4818 F   0  0  0  0  0  0  0  0  0  0  0  0
   34.7253   35.5511   16.3957 H   0  0  0  0  0  0  0  0  0  0  0  0
   36.0922   36.6556   14.6878 H   0  0  0  0  0  0  0  0  0  0  0  0
  1  7  1  0
  1 10  2  0
  1 11  1  0
  2  9  1  0
  2 12  2  0
  2 13  1  0
  3  4  1  0
  3  5  2  0
  3  6  1  0
  4  7  2  0
  4 14  1  0
  5 11  1  0
  5 12  1  0
  6  9  2  0
  6 15  1  0
  7 35  1  0
  8 11  1  0
  8 16  1  0
  8 17  1  0
  8 18  1  0
 13 19  1  0
 13 22  1  0
 20 21  1  0
 20 25  1  0
 20 26  1  0
 20 27  1  0
 21 22  1  0
 21 28  1  0
 21 29  1  0
 22 23  1  0
 22 30  1  0
 23 24  1  0
 23 31  1  0
 23 32  1  0
 24 25  1  0
 24 33  1  0
 24 34  1  0
 35 39  1  0
 36 37  2  0
 36 41  1  0
 36 42  1  0
 37 38  1  0
 37 43  1  0
 38 39  2  0
 38 44  1  0
 39 40  1  0
 40 41  2  0
 40 45  1  0
 41 46  1  0
M  END
>  <s_m_entry_id>  (1) 
848

>  <s_m_Source_Path>  (1) 
/projects/mai/users/kmzp800_harry/pmx_colab/docking_jobs/p38/glide-dock_SP_p38_mcs_docking_2

>  <s_m_Source_File>  (1) 
glide-dock_SP_p38_mcs_docking_2_pv.maegz

>  <i_m_Source_File_Index>  (1) 
32

>  <s_pdb_PDB_TITLE>  (1) 
MX MODEL

>  <r_i_docking_score>  (1) 
-6.29703477739063

>  <r_i_glide_gscore>  (1) 
-6.29703477739063

>  <r_i_glide_emodel>  (1) 
-40.3531564455145

>  <index_string>  (1) 
30:0:0

$$$$
