2:0:0
     RDKit          3D

 47 51  0  0  1  0  0  0  0  0999 V2000
    5.5810   -0.6170   16.3560 C   0  0  0  0  0  0  0  0  0  0  0  0
    4.3040   -1.0610   16.2360 N   0  0  0  0  0  0  0  0  0  0  0  0
    3.8110   -0.3350   15.2180 C   0  0  0  0  0  0  0  0  0  0  0  0
    2.5240   -0.4050   14.6900 C   0  0  0  0  0  0  0  0  0  0  0  0
    1.5630   -1.3230   15.2310 N   0  0  0  0  0  0  0  0  0  0  0  0
    2.2210    0.4260   13.6490 N   0  0  0  0  0  0  0  0  0  0  0  0
    3.1320    1.3050   13.1260 C   0  0  0  0  0  0  0  0  0  0  0  0
    4.4260    1.3560   13.6800 C   0  0  0  0  0  0  0  0  0  0  0  0
    4.7000    0.5220   14.7100 N   0  0  0  0  0  0  0  0  0  0  0  0
    5.8350    0.3710   15.4060 C   0  0  0  0  0  0  0  0  0  0  0  0
    2.7510    2.1810   11.9990 C   0  0  0  0  0  0  0  0  0  0  0  0
    3.7170    2.5340   11.0200 C   0  0  0  0  0  0  0  0  0  0  0  0
    3.3830    3.3660    9.9350 C   0  0  0  0  0  0  0  0  0  0  0  0
    2.0720    3.8260    9.8660 C   0  0  0  0  0  0  0  0  0  0  0  0
    1.1380    3.4950   10.7980 C   0  0  0  0  0  0  0  0  0  0  0  0
   -0.0260    4.1180   10.4160 C   0  0  0  0  0  0  0  0  0  0  0  0
    0.2540    4.7960    9.2730 N   0  0  0  0  0  0  0  0  0  0  0  0
    1.5280    4.6210    8.9350 N   0  0  0  0  0  0  0  0  0  0  0  0
    1.4300    2.6750   11.8830 C   0  0  0  0  0  0  0  0  0  0  0  0
    0.2090   -1.5130   14.7990 C   0  0  0  0  0  0  0  0  0  0  0  0
   -0.4840   -2.7100   15.0200 C   0  0  0  0  0  0  0  0  0  0  0  0
   -1.8020   -2.8550   14.5840 C   0  0  0  0  0  0  0  0  0  0  0  0
   -2.4490   -1.8030   13.9180 C   0  0  0  0  0  0  0  0  0  0  0  0
   -1.7630   -0.6000   13.6920 C   0  0  0  0  0  0  0  0  0  0  0  0
   -0.4360   -0.4650   14.1350 C   0  0  0  0  0  0  0  0  0  0  0  0
   -3.7700   -1.9290   13.4730 O   0  0  0  0  0  0  0  0  0  0  0  0
   -4.2470   -3.0880   12.8020 C   0  0  0  0  0  0  0  0  0  0  0  0
   -2.4140    0.4450   13.0270 O   0  0  0  0  0  0  0  0  0  0  0  0
   -1.8350    1.1370   11.9290 C   0  0  0  0  0  0  0  0  0  0  0  0
    6.3090   -0.9832   17.0948 H   0  0  0  0  0  0  0  0  0  0  0  0
    1.8806   -1.9098   16.0157 H   0  0  0  0  0  0  0  0  0  0  0  0
    5.1862    2.0486   13.2896 H   0  0  0  0  0  0  0  0  0  0  0  0
    6.7782    0.9172   15.2575 H   0  0  0  0  0  0  0  0  0  0  0  0
    4.7440    2.1506   11.1111 H   0  0  0  0  0  0  0  0  0  0  0  0
    4.1275    3.6410    9.1734 H   0  0  0  0  0  0  0  0  0  0  0  0
   -0.9951    4.0757   10.9347 H   0  0  0  0  0  0  0  0  0  0  0  0
    2.0054    5.0203    8.1143 H   0  0  0  0  0  0  0  0  0  0  0  0
    0.6600    2.4192   12.6258 H   0  0  0  0  0  0  0  0  0  0  0  0
    0.0138   -3.5413   15.5406 H   0  0  0  0  0  0  0  0  0  0  0  0
   -2.3366   -3.7995   14.7635 H   0  0  0  0  0  0  0  0  0  0  0  0
    0.1023    0.4776   13.9570 H   0  0  0  0  0  0  0  0  0  0  0  0
   -4.5563   -3.8396   13.5432 H   0  0  0  0  0  0  0  0  0  0  0  0
   -5.1074   -2.8188   12.1718 H   0  0  0  0  0  0  0  0  0  0  0  0
   -3.4463   -3.5024   12.1718 H   0  0  0  0  0  0  0  0  0  0  0  0
   -1.1714    1.9301   12.3041 H   0  0  0  0  0  0  0  0  0  0  0  0
   -1.2539    0.4319   11.3165 H   0  0  0  0  0  0  0  0  0  0  0  0
   -2.6315    1.5846   11.3165 H   0  0  0  0  0  0  0  0  0  0  0  0
  1  2  1  0
  1 10  2  0
  2  3  2  0
  3  4  1  0
  3  9  1  0
  4  5  1  0
  4  6  2  0
  5 20  1  0
  6  7  1  0
  7  8  2  0
  7 11  1  0
  8  9  1  0
  9 10  1  0
 11 12  2  0
 11 19  1  0
 12 13  1  0
 13 14  2  0
 14 15  1  0
 14 18  1  0
 15 19  2  0
 15 16  1  0
 16 17  2  0
 17 18  1  0
 20 21  2  0
 20 25  1  0
 21 22  1  0
 22 23  2  0
 23 24  1  0
 23 26  1  0
 24 25  2  0
 24 28  1  0
 26 27  1  0
 28 29  1  0
  1 30  1  0
  5 31  1  0
  8 32  1  0
 10 33  1  0
 12 34  1  0
 13 35  1  0
 16 36  1  0
 18 37  1  0
 19 38  1  0
 21 39  1  0
 22 40  1  0
 25 41  1  0
 27 42  1  0
 27 43  1  0
 27 44  1  0
 29 45  1  0
 29 46  1  0
 29 47  1  0
M  END
>  <s_m_entry_id>  (1) 
227

>  <MODEL>  (1) 
1

>  <REMARK>  (1) 
 VINA RESULT:    -9.229      0.000      0.000
 INTER + INTRA:         -12.031
 INTER:                 -11.662
 INTRA:                  -0.369
 UNBOUND:                -0.645
  Name = /scratch/kmzp800/tmpu5rvcrwn/tmpakauggfo.pdb
  6 active torsions:
  status: ('A' for Active; 'I' for Inactive)
    1  A    between atoms: N2_5  and  C4_6
    2  A    between atoms: C7_9  and  O1_10
    3  A    between atoms: O1_10  and  C8_11
    4  A    between atoms: C9_12  and  O2_13
    5  A    between atoms: O2_13  and  C10_14
    6  A    between atoms: C12_17  and  C13_18
                            x       y       z     vdW  Elec       q    Type
                         _______ _______ _______ _____ _____    ______ ____

>  <TORSDO>  (1) 
F 4

>  <grid_id>  (1) 
syk-prepared

>  <grid_path>  (1) 
syk_vina.pdbqt

>  <grid_filename>  (1) 
syk_vina.pdbqt

>  <docking_score>  (1) 
-9.229

>  <compound_name>  (1) 
CHEMBL3265021

>  <index_string>  (1) 
2:0:0

>  <s_m_Source_Path>  (1) 
/projects/mai/users/kmzp800_harry/pmx_colab/docking_jobs/syk/vina_prep/output

>  <s_m_Source_File>  (1) 
ptp1b_docked_conformers.sdf

>  <i_m_Source_File_Index>  (1) 
51

$$$$
