10:0:0
     RDKit          3D

 37 39  0  0  1  0  0  0  0  0999 V2000
  -14.3635  -14.9884  -27.7557 C   0  0  0  0  0  0  0  0  0  0  0  0
  -14.9574  -15.7640  -26.7386 C   0  0  0  0  0  0  0  0  0  0  0  0
  -14.4482  -13.5905  -27.7310 C   0  0  0  0  0  0  0  0  0  0  0  0
  -15.6504  -15.1193  -25.6882 C   0  0  0  0  0  0  0  0  0  0  0  0
  -14.7942  -17.1573  -26.7497 N   0  0  0  0  0  0  0  0  0  0  0  0
  -15.1589  -12.9526  -26.7058 C   0  0  0  0  0  0  0  0  0  0  0  0
  -15.7650  -13.7086  -25.6766 C   0  0  0  0  0  0  0  0  0  0  0  0
  -16.2198  -15.9905  -24.6047 C   0  0  0  0  0  0  0  0  0  0  0  0
  -15.9848  -17.3038  -24.7360 N   0  0  0  0  0  0  0  0  0  0  0  0
  -16.8482  -15.5488  -23.6521 O   0  0  0  0  0  0  0  0  0  0  0  0
  -15.2482  -17.8856  -25.7727 C   0  0  0  0  0  0  0  0  0  0  0  0
  -14.9941  -19.3487  -25.7738 C   0  0  0  0  0  0  0  0  0  0  0  0
  -14.8445  -20.0499  -24.5598 C   0  0  0  0  0  0  0  0  0  0  0  0
  -14.4881  -21.4104  -24.5709 C   0  0  0  0  0  0  0  0  0  0  0  0
  -14.3044  -22.0916  -25.7957 C   0  0  0  0  0  0  0  0  0  0  0  0
  -14.5248  -21.4010  -26.9995 C   0  0  0  0  0  0  0  0  0  0  0  0
  -14.8482  -20.0374  -26.9940 C   0  0  0  0  0  0  0  0  0  0  0  0
  -13.9968  -23.5802  -25.8216 C   0  0  0  0  0  0  0  0  0  0  0  0
  -13.2866  -23.9727  -24.6623 O   0  0  0  0  0  0  0  0  0  0  0  0
  -13.6482  -15.5727  -28.7386 F   0  0  0  0  0  0  0  0  0  0  0  0
  -15.2482  -11.6061  -26.7386 F   0  0  0  0  0  0  0  0  0  0  0  0
  -13.0657  -24.0456  -26.9564 C   0  0  0  0  0  0  0  0  0  0  0  0
  -15.3518  -24.3056  -25.9386 C   0  0  0  0  0  0  0  0  0  0  0  0
  -13.9764  -13.0019  -28.5045 H   0  0  0  0  0  0  0  0  0  0  0  0
  -16.3010  -13.2069  -24.8826 H   0  0  0  0  0  0  0  0  0  0  0  0
  -16.3917  -17.9113  -24.0368 H   0  0  0  0  0  0  0  0  0  0  0  0
  -14.9797  -19.5529  -23.6126 H   0  0  0  0  0  0  0  0  0  0  0  0
  -14.3694  -21.9280  -23.6298 H   0  0  0  0  0  0  0  0  0  0  0  0
  -14.4345  -21.9091  -27.9386 H   0  0  0  0  0  0  0  0  0  0  0  0
  -14.9325  -19.5218  -27.9386 H   0  0  0  0  0  0  0  0  0  0  0  0
  -12.4191  -23.5957  -24.7005 H   0  0  0  0  0  0  0  0  0  0  0  0
  -13.4926  -23.8731  -27.9386 H   0  0  0  0  0  0  0  0  0  0  0  0
  -12.8899  -25.1205  -26.8904 H   0  0  0  0  0  0  0  0  0  0  0  0
  -12.0870  -23.5727  -26.9112 H   0  0  0  0  0  0  0  0  0  0  0  0
  -15.9211  -23.9418  -26.7946 H   0  0  0  0  0  0  0  0  0  0  0  0
  -15.2482  -25.3790  -26.0782 H   0  0  0  0  0  0  0  0  0  0  0  0
  -15.9610  -24.1448  -25.0489 H   0  0  0  0  0  0  0  0  0  0  0  0
  1  2  2  0
  1  3  1  0
  1 20  1  0
  2  4  1  0
  2  5  1  0
  3  6  2  0
  3 24  1  0
  4  7  2  0
  4  8  1  0
  5 11  2  0
  6  7  1  0
  6 21  1  0
  7 25  1  0
  8  9  1  0
  8 10  2  0
  9 11  1  0
  9 26  1  0
 11 12  1  0
 12 13  2  0
 12 17  1  0
 13 14  1  0
 13 27  1  0
 14 15  2  0
 14 28  1  0
 15 16  1  0
 15 18  1  0
 16 17  2  0
 16 29  1  0
 17 30  1  0
 18 19  1  0
 18 22  1  0
 18 23  1  0
 19 31  1  0
 22 32  1  0
 22 33  1  0
 22 34  1  0
 23 35  1  0
 23 36  1  0
 23 37  1  0
M  END
>  <s_m_entry_id>  (1) 
425

>  <Name>  (1) 
5k

>  <IC50[nM]>  (1) 
9.2

>  <s_m_Source_Path>  (1) 
/projects/mai/users/kmzp800_harry/pmx_colab/docking_jobs/tnks2

>  <s_m_Source_File>  (1) 
tnks2_lig.sdf

>  <i_m_Source_File_Index>  (1) 
11

>  <s_m_job_name>  (1) 
glide-dock_SP_tnks2_no_cons

>  <r_i_docking_score>  (1) 
-10.566390403096

>  <r_i_glide_gscore>  (1) 
-10.566390403096

>  <r_i_glide_emodel>  (1) 
-62.2307212403609

>  <index_string>  (1) 
10:0:0

$$$$
