39:0:0
     RDKit          3D

 51 54  0  0  1  0  0  0  0  0999 V2000
    0.6446    6.8030   12.6163 C   0  0  0  0  0  0  0  0  0  0  0  0
    0.0782    6.0158   11.5826 O   0  0  0  0  0  0  0  0  0  0  0  0
   -0.2257    4.6990   11.8495 C   0  0  0  0  0  0  0  0  0  0  0  0
   -0.0192    4.0740   13.1024 C   0  0  0  0  0  0  0  0  0  0  0  0
   -0.3559    2.7197   13.2858 C   0  0  0  0  0  0  0  0  0  0  0  0
   -0.9151    1.9671   12.2313 C   0  0  0  0  0  0  0  0  0  0  0  0
   -1.3107    0.6299   12.3898 N   0  0  0  0  0  0  0  0  0  0  0  0
   -0.9502   -0.2576   13.4122 C   0  0  0  0  0  0  0  0  0  0  0  0
   -1.9245   -0.9877   13.8699 N   0  0  0  0  0  0  0  0  0  0  0  0
   -1.6736   -1.8957   14.8735 C   0  0  0  0  0  0  0  0  0  0  0  0
   -0.4261   -2.0806   15.4169 C   0  0  0  0  0  0  0  0  0  0  0  0
    0.5956   -1.3431   14.9124 N   0  0  0  0  0  0  0  0  0  0  0  0
    1.9390   -1.3049   15.2301 C   0  0  0  0  0  0  0  0  0  0  0  0
    2.5132   -0.4005   14.3818 C   0  0  0  0  0  0  0  0  0  0  0  0
    1.5610    0.1608   13.5420 N   0  0  0  0  0  0  0  0  0  0  0  0
    0.3966   -0.3998   13.8761 C   0  0  0  0  0  0  0  0  0  0  0  0
   -2.8627   -2.6156   15.3723 C   0  0  0  0  0  0  0  0  0  0  0  0
   -3.9637   -1.8514   15.8160 C   0  0  0  0  0  0  0  0  0  0  0  0
   -5.1346   -2.4532   16.3110 C   0  0  0  0  0  0  0  0  0  0  0  0
   -5.2294   -3.8566   16.3407 C   0  0  0  0  0  0  0  0  0  0  0  0
   -4.1361   -4.6386   15.9211 C   0  0  0  0  0  0  0  0  0  0  0  0
   -2.9532   -4.0314   15.4443 C   0  0  0  0  0  0  0  0  0  0  0  0
   -1.8015   -4.9286   15.0231 C   0  0  0  0  0  0  0  0  0  0  0  0
   -6.2609   -1.5964   16.7902 C   0  0  0  0  0  0  0  0  0  0  0  0
   -7.3581   -1.5992   16.2353 O   0  0  0  0  0  0  0  0  0  0  0  0
   -5.9707   -0.8122   17.8287 N   0  0  0  0  0  0  0  0  0  0  0  0
   -1.1279    2.5943   10.9887 C   0  0  0  0  0  0  0  0  0  0  0  0
   -0.7599    3.9463   10.7831 C   0  0  0  0  0  0  0  0  0  0  0  0
   -0.9076    4.5871    9.5737 O   0  0  0  0  0  0  0  0  0  0  0  0
   -0.6227    3.8245    8.4133 C   0  0  0  0  0  0  0  0  0  0  0  0
    0.8313    7.8010   12.2177 H   0  0  0  0  0  0  0  0  0  0  0  0
   -0.0329    6.8988   13.4663 H   0  0  0  0  0  0  0  0  0  0  0  0
    1.6008    6.4003   12.9554 H   0  0  0  0  0  0  0  0  0  0  0  0
    0.3937    4.6151   13.9411 H   0  0  0  0  0  0  0  0  0  0  0  0
   -0.1926    2.2752   14.2551 H   0  0  0  0  0  0  0  0  0  0  0  0
   -2.0791    0.3233   11.8097 H   0  0  0  0  0  0  0  0  0  0  0  0
   -0.2042   -2.7700   16.2275 H   0  0  0  0  0  0  0  0  0  0  0  0
    2.3338   -1.9399   16.0101 H   0  0  0  0  0  0  0  0  0  0  0  0
    3.5493   -0.1015   14.3114 H   0  0  0  0  0  0  0  0  0  0  0  0
   -3.9007   -0.7758   15.7837 H   0  0  0  0  0  0  0  0  0  0  0  0
   -6.1251   -4.3350   16.7107 H   0  0  0  0  0  0  0  0  0  0  0  0
   -4.2061   -5.7149   15.9762 H   0  0  0  0  0  0  0  0  0  0  0  0
   -2.1658   -5.8952   14.6749 H   0  0  0  0  0  0  0  0  0  0  0  0
   -1.2206   -4.4851   14.2165 H   0  0  0  0  0  0  0  0  0  0  0  0
   -1.1365   -5.1029   15.8699 H   0  0  0  0  0  0  0  0  0  0  0  0
   -6.6879   -0.2201   18.2173 H   0  0  0  0  0  0  0  0  0  0  0  0
   -5.0761   -0.9081   18.3038 H   0  0  0  0  0  0  0  0  0  0  0  0
   -1.5698    2.0181   10.1943 H   0  0  0  0  0  0  0  0  0  0  0  0
   -0.3990    4.4968    7.5847 H   0  0  0  0  0  0  0  0  0  0  0  0
    0.2609    3.2033    8.5552 H   0  0  0  0  0  0  0  0  0  0  0  0
   -1.4725    3.2037    8.1316 H   0  0  0  0  0  0  0  0  0  0  0  0
  1  2  1  0
  1 31  1  0
  1 32  1  0
  1 33  1  0
  2  3  1  0
  3  4  2  0
  3 28  1  0
  4  5  1  0
  4 34  1  0
  5  6  2  0
  5 35  1  0
  6  7  1  0
  6 27  1  0
  7  8  1  0
  7 36  1  0
  8  9  2  0
  8 16  1  0
  9 10  1  0
 10 11  2  0
 10 17  1  0
 11 12  1  0
 11 37  1  0
 12 13  1  0
 12 16  1  0
 13 14  2  0
 13 38  1  0
 14 15  1  0
 14 39  1  0
 15 16  2  0
 17 18  2  0
 17 22  1  0
 18 19  1  0
 18 40  1  0
 19 20  2  0
 19 24  1  0
 20 21  1  0
 20 41  1  0
 21 22  2  0
 21 42  1  0
 22 23  1  0
 23 43  1  0
 23 44  1  0
 23 45  1  0
 24 25  2  0
 24 26  1  0
 26 46  1  0
 26 47  1  0
 27 28  2  0
 27 48  1  0
 28 29  1  0
 29 30  1  0
 30 49  1  0
 30 50  1  0
 30 51  1  0
M  END
>  <s_m_entry_id>  (1) 
719

>  <IC50[nM]>  (1) 
466

>  <s_m_Source_Path>  (1) 
/projects/mai/users/kmzp800_harry/pmx_colab/docking_jobs/syk

>  <s_m_Source_File>  (1) 
tnks2_lig.sdf

>  <i_m_Source_File_Index>  (1) 
40

>  <s_m_job_name>  (1) 
glide-dock_SP_tnks2_no_const

>  <r_i_docking_score>  (1) 
-6.78293386434874

>  <r_i_glide_gscore>  (1) 
-6.78293386434874

>  <r_i_glide_emodel>  (1) 
-69.9764659917997

>  <index_string>  (1) 
39:0:0

$$$$
