32:0:0
     RDKit          3D

 48 51  0  0  1  0  0  0  0  0999 V2000
   34.5160   34.7494   15.2901 C   0  0  0  0  0  0  0  0  0  0  0  0
   34.5390   35.0072   21.1833 C   0  0  0  0  0  0  0  0  0  0  0  0
   35.3407   34.9922   16.3939 C   0  0  0  0  0  0  0  0  0  0  0  0
   34.0425   38.9864   23.7391 C   0  0  0  0  0  0  0  0  0  0  0  0
   34.8331   37.8446   21.4536 C   0  0  0  0  0  0  0  0  0  0  0  0
   35.2763   37.1630   20.2567 C   0  0  0  0  0  0  0  0  0  0  0  0
   33.1199   34.8237   15.4177 C   0  0  0  0  0  0  0  0  0  0  0  0
   32.5564   35.1495   16.6579 C   0  0  0  0  0  0  0  0  0  0  0  0
   33.3680   35.2704   17.8016 C   0  0  0  0  0  0  0  0  0  0  0  0
   34.3224   37.0608   22.5052 C   0  0  0  0  0  0  0  0  0  0  0  0
   34.8779   39.2397   21.6413 C   0  0  0  0  0  0  0  0  0  0  0  0
   35.1594   35.8283   20.1325 C   0  0  0  0  0  0  0  0  0  0  0  0
   34.7659   35.1678   17.6713 C   0  0  0  0  0  0  0  0  0  0  0  0
   33.7106   34.8559   23.4759 C   0  0  0  0  0  0  0  0  0  0  0  0
   36.6862   34.9190   16.2425 F   0  0  0  0  0  0  0  0  0  0  0  0
   35.6599   35.1481   18.8888 C   0  0  0  0  0  0  0  0  0  0  0  0
   34.4891   39.8156   22.7985 N   0  0  0  0  0  0  0  0  0  0  0  0
   34.2976   33.8153   21.0067 O   0  0  0  0  0  0  0  0  0  0  0  0
   34.2306   35.6437   22.3466 N   0  0  0  0  0  0  0  0  0  0  0  0
   33.9368   37.6661   23.6372 N   0  0  0  0  0  0  0  0  0  0  0  0
   33.6632   39.5493   24.9357 N   0  0  0  0  0  0  0  0  0  0  0  0
   34.9501   34.5280   14.3313 H   0  0  0  0  0  0  0  0  0  0  0  0
   35.7383   37.7539   19.4776 H   0  0  0  0  0  0  0  0  0  0  0  0
   31.4852   35.2737   16.7528 H   0  0  0  0  0  0  0  0  0  0  0  0
   32.9002   35.4468   18.7587 H   0  0  0  0  0  0  0  0  0  0  0  0
   35.2486   39.8928   20.8702 H   0  0  0  0  0  0  0  0  0  0  0  0
   34.0920   35.2307   24.4249 H   0  0  0  0  0  0  0  0  0  0  0  0
   32.6241   34.9352   23.5038 H   0  0  0  0  0  0  0  0  0  0  0  0
   33.9829   33.7981   23.4413 H   0  0  0  0  0  0  0  0  0  0  0  0
   33.7523   40.5492   25.0500 H   0  0  0  0  0  0  0  0  0  0  0  0
   32.4866   34.6793   14.5543 H   0  0  0  0  0  0  0  0  0  0  0  0
   35.7525   34.0979   19.1188 H   0  0  0  0  0  0  0  0  0  0  0  0
   36.6448   35.5486   18.6496 H   0  0  0  0  0  0  0  0  0  0  0  0
   33.4229   38.1159   28.4346 C   0  0  0  0  0  0  0  0  0  0  0  0
   34.0088   38.9403   27.2902 C   0  0  0  0  0  0  0  0  0  0  0  0
   33.1325   38.7725   26.0501 C   0  0  0  0  0  0  0  0  0  0  0  0
   31.6916   39.1775   26.3508 C   0  0  0  0  0  0  0  0  0  0  0  0
   31.1586   38.3302   27.5209 C   0  0  0  0  0  0  0  0  0  0  0  0
   32.0285   38.4932   28.6836 O   0  0  0  0  0  0  0  0  0  0  0  0
   33.4722   37.0497   28.2022 H   0  0  0  0  0  0  0  0  0  0  0  0
   34.0034   38.2633   29.3449 H   0  0  0  0  0  0  0  0  0  0  0  0
   35.0339   38.6240   27.0865 H   0  0  0  0  0  0  0  0  0  0  0  0
   34.0545   39.9889   27.5863 H   0  0  0  0  0  0  0  0  0  0  0  0
   33.1141   37.7092   25.8233 H   0  0  0  0  0  0  0  0  0  0  0  0
   31.6449   40.2355   26.6155 H   0  0  0  0  0  0  0  0  0  0  0  0
   31.0568   39.0439   25.4733 H   0  0  0  0  0  0  0  0  0  0  0  0
   31.1022   37.2772   27.2454 H   0  0  0  0  0  0  0  0  0  0  0  0
   30.1523   38.6470   27.7918 H   0  0  0  0  0  0  0  0  0  0  0  0
  1  3  2  0
  1  7  1  0
  1 22  1  0
  2 12  1  0
  2 18  2  0
  2 19  1  0
  3 13  1  0
  3 15  1  0
  4 17  1  0
  4 20  2  0
  4 21  1  0
  5  6  1  0
  5 10  2  0
  5 11  1  0
  6 12  2  0
  6 23  1  0
  7  8  2  0
  7 31  1  0
  8  9  1  0
  8 24  1  0
  9 13  2  0
  9 25  1  0
 10 19  1  0
 10 20  1  0
 11 17  2  0
 11 26  1  0
 12 16  1  0
 13 16  1  0
 14 19  1  0
 14 27  1  0
 14 28  1  0
 14 29  1  0
 16 32  1  0
 16 33  1  0
 21 30  1  0
 21 36  1  0
 34 35  1  0
 34 39  1  0
 34 40  1  0
 34 41  1  0
 35 36  1  0
 35 42  1  0
 35 43  1  0
 36 37  1  0
 36 44  1  0
 37 38  1  0
 37 45  1  0
 37 46  1  0
 38 39  1  0
 38 47  1  0
 38 48  1  0
M  END
>  <s_m_entry_id>  (1) 
850

>  <s_m_Source_Path>  (1) 
/projects/mai/users/kmzp800_harry/pmx_colab/docking_jobs/p38/glide-dock_SP_p38_mcs_docking_2

>  <s_m_Source_File>  (1) 
glide-dock_SP_p38_mcs_docking_2_pv.maegz

>  <i_m_Source_File_Index>  (1) 
34

>  <s_pdb_PDB_TITLE>  (1) 
MX MODEL

>  <r_i_docking_score>  (1) 
-5.83373580995243

>  <r_i_glide_gscore>  (1) 
-5.83373580995243

>  <r_i_glide_emodel>  (1) 
-29.6064978504771

>  <index_string>  (1) 
32:0:0

$$$$
