26:0:0
     RDKit          3D

 62 67  0  0  1  0  0  0  0  0999 V2000
   -4.5835   -2.9554   15.6946 C   0  0  0  0  0  0  0  0  0  0  0  0
   -3.8948   -2.2294   14.6852 O   0  0  0  0  0  0  0  0  0  0  0  0
   -2.5348   -2.0540   14.8239 C   0  0  0  0  0  0  0  0  0  0  0  0
   -1.7433   -2.8137   15.7127 C   0  0  0  0  0  0  0  0  0  0  0  0
   -0.3670   -2.5800   15.8166 C   0  0  0  0  0  0  0  0  0  0  0  0
    0.2486   -1.5609   15.0702 C   0  0  0  0  0  0  0  0  0  0  0  0
    1.6167   -1.3416   15.2970 N   0  0  0  0  0  0  0  0  0  0  0  0
    2.5319   -0.4332   14.7285 C   0  0  0  0  0  0  0  0  0  0  0  0
    2.1986    0.3745   13.7585 N   0  0  0  0  0  0  0  0  0  0  0  0
    3.1257    1.2537   13.2331 C   0  0  0  0  0  0  0  0  0  0  0  0
    4.4271    1.2859   13.6838 C   0  0  0  0  0  0  0  0  0  0  0  0
    4.7619    0.4853   14.7269 N   0  0  0  0  0  0  0  0  0  0  0  0
    5.9120    0.3823   15.4838 C   0  0  0  0  0  0  0  0  0  0  0  0
    5.6156   -0.5000   16.4936 C   0  0  0  0  0  0  0  0  0  0  0  0
    4.3686   -1.0593   16.3274 N   0  0  0  0  0  0  0  0  0  0  0  0
    3.8357   -0.4163   15.2950 C   0  0  0  0  0  0  0  0  0  0  0  0
    2.6523    2.1628   12.1551 C   0  0  0  0  0  0  0  0  0  0  0  0
    3.5623    2.6731   11.1920 C   0  0  0  0  0  0  0  0  0  0  0  0
    3.1479    3.4980   10.1352 C   0  0  0  0  0  0  0  0  0  0  0  0
    1.7926    3.8535   10.0413 C   0  0  0  0  0  0  0  0  0  0  0  0
    0.8767    3.3902   11.0167 C   0  0  0  0  0  0  0  0  0  0  0  0
    1.2957    2.5458   12.0669 C   0  0  0  0  0  0  0  0  0  0  0  0
   -0.5590    3.7811   10.9483 C   0  0  0  0  0  0  0  0  0  0  0  0
   -1.2694    3.3411   10.0437 O   0  0  0  0  0  0  0  0  0  0  0  0
   -0.9541    4.5757   11.9651 N   0  0  0  0  0  0  0  0  0  0  0  0
   -2.2502    5.1100   12.2077 C   0  0  0  0  0  0  0  0  0  0  0  0
   -3.1776    5.2476   11.1579 C   0  0  0  0  0  0  0  0  0  0  0  0
   -4.4666    5.7488   11.3978 C   0  0  0  0  0  0  0  0  0  0  0  0
   -4.8722    6.1302   12.6942 C   0  0  0  0  0  0  0  0  0  0  0  0
   -3.9399    6.0040   13.7470 C   0  0  0  0  0  0  0  0  0  0  0  0
   -2.6355    5.5186   13.5060 C   0  0  0  0  0  0  0  0  0  0  0  0
   -6.2363    6.6372   12.9344 C   0  0  0  0  0  0  0  0  0  0  0  0
   -7.3260    5.8785   12.7549 N   0  0  0  0  0  0  0  0  0  0  0  0
   -8.3221    6.7197   13.0788 N   0  0  0  0  0  0  0  0  0  0  0  0
   -7.8172    7.9193   13.4192 N   0  0  0  0  0  0  0  0  0  0  0  0
   -6.4755    7.8918   13.3410 N   0  0  0  0  0  0  0  0  0  0  0  0
   -0.5371   -0.8096   14.1702 C   0  0  0  0  0  0  0  0  0  0  0  0
   -1.9230   -1.0544   14.0359 C   0  0  0  0  0  0  0  0  0  0  0  0
   -2.7385   -0.3206   13.1953 O   0  0  0  0  0  0  0  0  0  0  0  0
   -2.1819    0.7116   12.3865 C   0  0  0  0  0  0  0  0  0  0  0  0
   -5.6406   -3.0124   15.4344 H   0  0  0  0  0  0  0  0  0  0  0  0
   -4.2174   -3.9780   15.7854 H   0  0  0  0  0  0  0  0  0  0  0  0
   -4.5094   -2.4567   16.6631 H   0  0  0  0  0  0  0  0  0  0  0  0
   -2.1653   -3.5820   16.3369 H   0  0  0  0  0  0  0  0  0  0  0  0
    0.2082   -3.1820   16.5039 H   0  0  0  0  0  0  0  0  0  0  0  0
    2.0227   -1.8906   16.0479 H   0  0  0  0  0  0  0  0  0  0  0  0
    5.2012    1.9378   13.3024 H   0  0  0  0  0  0  0  0  0  0  0  0
    6.7779    0.9811   15.2456 H   0  0  0  0  0  0  0  0  0  0  0  0
    6.1796   -0.7691   17.3543 H   0  0  0  0  0  0  0  0  0  0  0  0
    4.6077    2.4187   11.2427 H   0  0  0  0  0  0  0  0  0  0  0  0
    3.8752    3.8582    9.4216 H   0  0  0  0  0  0  0  0  0  0  0  0
    1.4709    4.4885    9.2277 H   0  0  0  0  0  0  0  0  0  0  0  0
    0.5922    2.1813   12.8034 H   0  0  0  0  0  0  0  0  0  0  0  0
   -0.2353    4.8228   12.6277 H   0  0  0  0  0  0  0  0  0  0  0  0
   -2.9093    4.9709   10.1510 H   0  0  0  0  0  0  0  0  0  0  0  0
   -5.1488    5.8359   10.5668 H   0  0  0  0  0  0  0  0  0  0  0  0
   -4.2239    6.2821   14.7515 H   0  0  0  0  0  0  0  0  0  0  0  0
   -1.9647    5.4183   14.3500 H   0  0  0  0  0  0  0  0  0  0  0  0
   -0.0745   -0.0364   13.5894 H   0  0  0  0  0  0  0  0  0  0  0  0
   -2.9771    1.1615   11.7900 H   0  0  0  0  0  0  0  0  0  0  0  0
   -1.7392    1.5064   12.9874 H   0  0  0  0  0  0  0  0  0  0  0  0
   -1.4363    0.3215   11.6928 H   0  0  0  0  0  0  0  0  0  0  0  0
  1  2  1  0
  1 41  1  0
  1 42  1  0
  1 43  1  0
  2  3  1  0
  3  4  2  0
  3 38  1  0
  4  5  1  0
  4 44  1  0
  5  6  2  0
  5 45  1  0
  6  7  1  0
  6 37  1  0
  7  8  1  0
  7 46  1  0
  8  9  2  0
  8 16  1  0
  9 10  1  0
 10 11  2  0
 10 17  1  0
 11 12  1  0
 11 47  1  0
 12 13  1  0
 12 16  1  0
 13 14  2  0
 13 48  1  0
 14 15  1  0
 14 49  1  0
 15 16  2  0
 17 18  2  0
 17 22  1  0
 18 19  1  0
 18 50  1  0
 19 20  2  0
 19 51  1  0
 20 21  1  0
 20 52  1  0
 21 22  2  0
 21 23  1  0
 22 53  1  0
 23 24  2  0
 23 25  1  0
 25 26  1  0
 25 54  1  0
 26 27  2  0
 26 31  1  0
 27 28  1  0
 27 55  1  0
 28 29  2  0
 28 56  1  0
 29 30  1  0
 29 32  1  0
 30 31  2  0
 30 57  1  0
 31 58  1  0
 32 36  2  0
 32 33  1  0
 33 34  1  0
 34 35  2  0
 35 36  1  0
 37 38  2  0
 37 59  1  0
 38 39  1  0
 39 40  1  0
 40 60  1  0
 40 61  1  0
 40 62  1  0
M  CHG  1  33  -1
M  END
>  <s_m_entry_id>  (1) 
1080

>  <IC50[nM]>  (1) 
1.5

>  <s_m_Source_Path>  (1) 
/projects/mai/users/kmzp800_harry/pmx_colab/docking_jobs/syk

>  <s_m_Source_File>  (1) 
tnks2_lig.sdf

>  <i_m_Source_File_Index>  (1) 
28

>  <s_m_job_name>  (1) 
glide-dock_SP_syk_mcs

>  <r_i_docking_score>  (1) 
-8.28799214844967

>  <r_i_glide_gscore>  (1) 
-8.28799214844967

>  <r_i_glide_emodel>  (1) 
-78.7265844057831

>  <index_string>  (1) 
26:0:0

$$$$
