8:0:0
     RDKit          3D

 50 54  0  0  1  0  0  0  0  0999 V2000
   -4.5313   -3.1959   15.5147 C   0  0  0  0  0  0  0  0  0  0  0  0
   -3.8870   -2.2387   14.6848 O   0  0  0  0  0  0  0  0  0  0  0  0
   -2.5283   -2.0600   14.8278 C   0  0  0  0  0  0  0  0  0  0  0  0
   -1.7369   -2.8227   15.7134 C   0  0  0  0  0  0  0  0  0  0  0  0
   -0.3615   -2.5862   15.8172 C   0  0  0  0  0  0  0  0  0  0  0  0
    0.2532   -1.5648   15.0733 C   0  0  0  0  0  0  0  0  0  0  0  0
    1.6241   -1.3556   15.2878 N   0  0  0  0  0  0  0  0  0  0  0  0
    2.5328   -0.4313   14.7278 C   0  0  0  0  0  0  0  0  0  0  0  0
    2.1977    0.3774   13.7592 N   0  0  0  0  0  0  0  0  0  0  0  0
    3.1247    1.2576   13.2332 C   0  0  0  0  0  0  0  0  0  0  0  0
    4.4244    1.2931   13.6888 C   0  0  0  0  0  0  0  0  0  0  0  0
    4.7589    0.4940   14.7316 N   0  0  0  0  0  0  0  0  0  0  0  0
    5.9087    0.3840   15.4873 C   0  0  0  0  0  0  0  0  0  0  0  0
    5.6172   -0.5001   16.4906 C   0  0  0  0  0  0  0  0  0  0  0  0
    4.3696   -1.0612   16.3259 N   0  0  0  0  0  0  0  0  0  0  0  0
    3.8358   -0.4142   15.3006 C   0  0  0  0  0  0  0  0  0  0  0  0
    2.6525    2.1685   12.1576 C   0  0  0  0  0  0  0  0  0  0  0  0
    3.5605    2.6775   11.1888 C   0  0  0  0  0  0  0  0  0  0  0  0
    3.1496    3.5049   10.1304 C   0  0  0  0  0  0  0  0  0  0  0  0
    1.7942    3.8551   10.0353 C   0  0  0  0  0  0  0  0  0  0  0  0
    1.3685    4.6768    9.0176 O   0  0  0  0  0  0  0  0  0  0  0  0
   -0.0181    4.5939    8.6559 C   0  0  0  0  0  0  0  0  0  0  0  0
   -0.9552    4.4197    9.8667 C   0  0  0  0  0  0  0  0  0  0  0  0
   -2.1152    4.8193    9.8279 O   0  0  0  0  0  0  0  0  0  0  0  0
   -0.4643    3.7823   10.9346 N   0  0  0  0  0  0  0  0  0  0  0  0
    0.8811    3.3882   11.0154 C   0  0  0  0  0  0  0  0  0  0  0  0
    1.2959    2.5511   12.0700 C   0  0  0  0  0  0  0  0  0  0  0  0
   -0.5335   -0.8084   14.1814 C   0  0  0  0  0  0  0  0  0  0  0  0
   -1.9190   -1.0513   14.0464 C   0  0  0  0  0  0  0  0  0  0  0  0
   -2.7350   -0.3185   13.2059 O   0  0  0  0  0  0  0  0  0  0  0  0
   -2.1761    0.7079   12.3934 C   0  0  0  0  0  0  0  0  0  0  0  0
   -5.5946   -3.2097   15.2792 H   0  0  0  0  0  0  0  0  0  0  0  0
   -4.4304   -2.9436   16.5713 H   0  0  0  0  0  0  0  0  0  0  0  0
   -4.1437   -4.2012   15.3435 H   0  0  0  0  0  0  0  0  0  0  0  0
   -2.1607   -3.5960   16.3328 H   0  0  0  0  0  0  0  0  0  0  0  0
    0.2202   -3.1963   16.4902 H   0  0  0  0  0  0  0  0  0  0  0  0
    2.0680   -2.0265   15.9063 H   0  0  0  0  0  0  0  0  0  0  0  0
    5.1964    1.9497   13.3061 H   0  0  0  0  0  0  0  0  0  0  0  0
    6.7759    0.9807   15.2435 H   0  0  0  0  0  0  0  0  0  0  0  0
    6.1881   -0.7861   17.3538 H   0  0  0  0  0  0  0  0  0  0  0  0
    4.6021    2.4125   11.2378 H   0  0  0  0  0  0  0  0  0  0  0  0
    3.8750    3.8514    9.4035 H   0  0  0  0  0  0  0  0  0  0  0  0
   -0.2942    5.4974    8.1108 H   0  0  0  0  0  0  0  0  0  0  0  0
   -0.1583    3.7521    7.9761 H   0  0  0  0  0  0  0  0  0  0  0  0
   -1.0703    3.5961   11.7191 H   0  0  0  0  0  0  0  0  0  0  0  0
    0.5903    2.1887   12.8103 H   0  0  0  0  0  0  0  0  0  0  0  0
   -0.0787   -0.0250   13.6084 H   0  0  0  0  0  0  0  0  0  0  0  0
   -2.9623    1.1199   11.7581 H   0  0  0  0  0  0  0  0  0  0  0  0
   -1.7803    1.5281   12.9943 H   0  0  0  0  0  0  0  0  0  0  0  0
   -1.3938    0.3263   11.7358 H   0  0  0  0  0  0  0  0  0  0  0  0
  1  2  1  0
  1 32  1  0
  1 33  1  0
  1 34  1  0
  2  3  1  0
  3  4  2  0
  3 29  1  0
  4  5  1  0
  4 35  1  0
  5  6  2  0
  5 36  1  0
  6  7  1  0
  6 28  1  0
  7  8  1  0
  7 37  1  0
  8  9  2  0
  8 16  1  0
  9 10  1  0
 10 11  2  0
 10 17  1  0
 11 12  1  0
 11 38  1  0
 12 13  1  0
 12 16  1  0
 13 14  2  0
 13 39  1  0
 14 15  1  0
 14 40  1  0
 15 16  2  0
 17 18  2  0
 17 27  1  0
 18 19  1  0
 18 41  1  0
 19 20  2  0
 19 42  1  0
 20 21  1  0
 20 26  1  0
 21 22  1  0
 22 23  1  0
 22 43  1  0
 22 44  1  0
 23 24  2  0
 23 25  1  0
 25 26  1  0
 25 45  1  0
 26 27  2  0
 27 46  1  0
 28 29  2  0
 28 47  1  0
 29 30  1  0
 30 31  1  0
 31 48  1  0
 31 49  1  0
 31 50  1  0
M  END
>  <s_m_entry_id>  (1) 
1094

>  <IC50[nM]>  (1) 
2.3

>  <s_m_Source_Path>  (1) 
/projects/mai/users/kmzp800_harry/pmx_colab/docking_jobs/syk

>  <s_m_Source_File>  (1) 
tnks2_lig.sdf

>  <i_m_Source_File_Index>  (1) 
10

>  <s_m_job_name>  (1) 
glide-dock_SP_syk_mcs

>  <r_i_docking_score>  (1) 
-6.98415941257149

>  <r_i_glide_gscore>  (1) 
-6.98415941257149

>  <r_i_glide_emodel>  (1) 
-49.9442214686485

>  <index_string>  (1) 
8:0:0

$$$$
