0:0:0
     RDKit          3D

 42 44  0  0  1  0  0  0  0  0999 V2000
   41.3697   17.4872   11.8641 O   0  0  0  0  0  0  0  0  0  0  0  0
   40.4632   17.1477   12.6634 C   0  0  0  0  0  0  0  0  0  0  0  0
   39.2767   17.5537   12.6111 O   0  0  0  0  0  0  0  0  0  0  0  0
   40.8059   16.1495   13.7788 C   0  0  0  0  0  0  0  0  0  0  0  0
   42.1622   15.7187   13.7134 O   0  0  0  0  0  0  0  0  0  0  0  0
   42.5375   14.9123   14.7340 C   0  0  0  0  0  0  0  0  0  0  0  0
   42.1493   13.5610   14.8930 C   0  0  0  0  0  0  0  0  0  0  0  0
   40.9832   12.7174   13.6787 Br  0  0  0  0  0  0  0  0  0  0  0  0
   42.6133   12.9227   16.0107 C   0  0  0  0  0  0  0  0  0  0  0  0
   43.6127   13.9998   16.9211 S   0  0  0  0  0  0  0  0  0  0  0  0
   43.3399   15.2957   15.7719 C   0  0  0  0  0  0  0  0  0  0  0  0
   43.9626   16.5664   16.0975 C   0  0  0  0  0  0  0  0  0  0  0  0
   44.5837   16.6883   17.1725 O   0  0  0  0  0  0  0  0  0  0  0  0
   43.8732   17.5214   15.3033 O   0  0  0  0  0  0  0  0  0  0  0  0
   42.3611   11.5715   16.4881 C   0  0  0  0  0  0  0  0  0  0  0  0
   43.4141   10.7914   17.0063 C   0  0  0  0  0  0  0  0  0  0  0  0
   43.1765    9.4828   17.4547 C   0  0  0  0  0  0  0  0  0  0  0  0
   41.8826    8.9368   17.3662 C   0  0  0  0  0  0  0  0  0  0  0  0
   40.8126    9.6899   16.8294 C   0  0  0  0  0  0  0  0  0  0  0  0
   41.0611   11.0191   16.4228 C   0  0  0  0  0  0  0  0  0  0  0  0
   39.5176    9.1568   16.7289 N   0  0  0  0  0  0  0  0  0  0  0  0
   39.2372    7.7641   17.0896 C   0  0  0  0  0  0  0  0  0  0  0  0
   37.7276    7.5008   17.1331 C   0  0  0  0  0  0  0  0  0  0  0  0
   37.3188    7.0460   15.7212 C   0  0  0  0  0  0  0  0  0  0  0  0
   38.6208    6.7778   14.9583 C   0  0  0  0  0  0  0  0  0  0  0  0
   39.7290    6.7900   16.0143 C   0  0  0  0  0  0  0  0  0  0  0  0
   40.5775   16.6113   14.7405 H   0  0  0  0  0  0  0  0  0  0  0  0
   40.1648   15.2798   13.6812 H   0  0  0  0  0  0  0  0  0  0  0  0
   44.4112   11.2018   17.0672 H   0  0  0  0  0  0  0  0  0  0  0  0
   43.9896    8.9007   17.8705 H   0  0  0  0  0  0  0  0  0  0  0  0
   41.7304    7.9353   17.7368 H   0  0  0  0  0  0  0  0  0  0  0  0
   40.2455   11.6370   16.0707 H   0  0  0  0  0  0  0  0  0  0  0  0
   38.8805    9.6037   16.0887 H   0  0  0  0  0  0  0  0  0  0  0  0
   39.6768    7.5288   18.0590 H   0  0  0  0  0  0  0  0  0  0  0  0
   37.5123    6.6908   17.8351 H   0  0  0  0  0  0  0  0  0  0  0  0
   37.1595    8.3684   17.4686 H   0  0  0  0  0  0  0  0  0  0  0  0
   36.7076    6.1425   15.7714 H   0  0  0  0  0  0  0  0  0  0  0  0
   36.7255    7.8097   15.2161 H   0  0  0  0  0  0  0  0  0  0  0  0
   38.5908    5.8364   14.4104 H   0  0  0  0  0  0  0  0  0  0  0  0
   38.7942    7.5758   14.2360 H   0  0  0  0  0  0  0  0  0  0  0  0
   40.6982    7.0662   15.5972 H   0  0  0  0  0  0  0  0  0  0  0  0
   39.8342    5.7887   16.4406 H   0  0  0  0  0  0  0  0  0  0  0  0
  1  2  2  0
  2  3  1  0
  2  4  1  0
  4  5  1  0
  4 27  1  0
  4 28  1  0
  5  6  1  0
  6 11  2  0
  6  7  1  0
  7  8  1  0
  7  9  2  0
  9 10  1  0
  9 15  1  0
 10 11  1  0
 11 12  1  0
 12 13  2  0
 12 14  1  0
 15 20  1  0
 15 16  2  0
 16 17  1  0
 16 29  1  0
 17 18  2  0
 17 30  1  0
 18 19  1  0
 18 31  1  0
 19 20  2  0
 19 21  1  0
 20 32  1  0
 21 22  1  0
 21 33  1  0
 22 26  1  0
 22 23  1  0
 22 34  1  0
 23 24  1  0
 23 35  1  0
 23 36  1  0
 24 25  1  0
 24 37  1  0
 24 38  1  0
 25 26  1  0
 25 39  1  0
 25 40  1  0
 26 41  1  0
 26 42  1  0
M  CHG  2   3  -1  14  -1
M  END
>  <s_m_entry_id>  (1) 
475

>  <i_f3d_flags>  (1) 
0

>  <r_epik_Ionization_Penalty>  (1) 
  0.0029

>  <r_epik_State_Penalty>  (1) 
  0.0020

>  <i_epik_Tot_Q>  (1) 
-2

>  <s_m_job_name>  (1) 
glide-dock_SP_ptp1b_core_cons

>  <r_i_docking_score>  (1) 
-6.84268241846563

>  <r_i_glide_gscore>  (1) 
-6.84468241846563

>  <r_i_glide_emodel>  (1) 
-86.047723727734

>  <index_string>  (1) 
0:0:0

$$$$
