31:0:0
     RDKit          3D

 50 54  0  0  1  0  0  0  0  0999 V2000
   33.0480   37.0900   24.8940 C   0  0  0  0  0  0  0  0  0  0  0  0
   33.8430   37.7730   23.9800 C   0  0  0  0  0  0  0  0  0  0  0  0
   34.1430   37.1930   22.7560 C   0  0  0  0  0  0  0  0  0  0  0  0
   34.9530   37.8480   21.8340 C   0  0  0  0  0  0  0  0  0  0  0  0
   35.2480   37.2500   20.6500 N   0  0  0  0  0  0  0  0  0  0  0  0
   34.7650   36.0140   20.3490 C   0  0  0  0  0  0  0  0  0  0  0  0
   35.0820   35.3860   19.1020 N   0  0  0  0  0  0  0  0  0  0  0  0
   33.9700   35.3630   21.2390 N   0  0  0  0  0  0  0  0  0  0  0  0
   33.6370   35.9200   22.4390 C   0  0  0  0  0  0  0  0  0  0  0  0
   32.8310   35.2530   23.3320 N   0  0  0  0  0  0  0  0  0  0  0  0
   32.5820   35.7970   24.5710 C   0  0  0  0  0  0  0  0  0  0  0  0
   31.9570   35.1310   25.4430 O   0  0  0  0  0  0  0  0  0  0  0  0
   35.9200   35.9780   18.0620 C   0  0  0  0  0  0  0  0  0  0  0  0
   35.5050   35.4830   16.6750 C   0  0  0  0  0  0  0  0  0  0  0  0
   36.5250   35.9730   15.6480 C   0  0  0  0  0  0  0  0  0  0  0  0
   37.8060   35.4870   15.9730 O   0  0  0  0  0  0  0  0  0  0  0  0
   38.2180   36.1770   17.1270 C   0  0  0  0  0  0  0  0  0  0  0  0
   37.4010   35.7120   18.3330 C   0  0  0  0  0  0  0  0  0  0  0  0
   32.3340   33.9020   23.0070 C   0  0  0  0  0  0  0  0  0  0  0  0
   30.8190   33.9050   22.8320 C   0  0  0  0  0  0  0  0  0  0  0  0
   31.7080   33.8750   21.6170 C   0  0  0  0  0  0  0  0  0  0  0  0
   32.7810   37.6990   26.1280 O   0  0  0  0  0  0  0  0  0  0  0  0
   35.3290   39.4420   28.1560 C   0  0  0  0  0  0  0  0  0  0  0  0
   34.3870   39.1620   27.1640 C   0  0  0  0  0  0  0  0  0  0  0  0
   33.7250   37.9280   27.1400 C   0  0  0  0  0  0  0  0  0  0  0  0
   33.9990   36.9790   28.1480 C   0  0  0  0  0  0  0  0  0  0  0  0
   33.3300   35.8020   28.2020 F   0  0  0  0  0  0  0  0  0  0  0  0
   34.9440   37.2660   29.1380 C   0  0  0  0  0  0  0  0  0  0  0  0
   35.6130   38.4910   29.1390 C   0  0  0  0  0  0  0  0  0  0  0  0
   36.5280   38.7620   30.1000 F   0  0  0  0  0  0  0  0  0  0  0  0
   34.2333   38.7713   24.2271 H   0  0  0  0  0  0  0  0  0  0  0  0
   35.3534   38.8467   22.0626 H   0  0  0  0  0  0  0  0  0  0  0  0
   34.6911   34.4495   18.9254 H   0  0  0  0  0  0  0  0  0  0  0  0
   35.7705   37.0676   18.0830 H   0  0  0  0  0  0  0  0  0  0  0  0
   35.4746   34.3834   16.6694 H   0  0  0  0  0  0  0  0  0  0  0  0
   34.5073   35.8722   16.4239 H   0  0  0  0  0  0  0  0  0  0  0  0
   36.2400   35.6100   14.6495 H   0  0  0  0  0  0  0  0  0  0  0  0
   36.5436   37.0728   15.6534 H   0  0  0  0  0  0  0  0  0  0  0  0
   39.2841   35.9770   17.3100 H   0  0  0  0  0  0  0  0  0  0  0  0
   38.0613   37.2556   16.9785 H   0  0  0  0  0  0  0  0  0  0  0  0
   37.7175   36.2662   19.2289 H   0  0  0  0  0  0  0  0  0  0  0  0
   37.5616   34.6365   18.4989 H   0  0  0  0  0  0  0  0  0  0  0  0
   33.0623   33.2880   23.5571 H   0  0  0  0  0  0  0  0  0  0  0  0
   30.2331   33.0151   23.1055 H   0  0  0  0  0  0  0  0  0  0  0  0
   29.9997   34.5526   23.1776 H   0  0  0  0  0  0  0  0  0  0  0  0
   31.7781   34.7591   20.9663 H   0  0  0  0  0  0  0  0  0  0  0  0
   31.7985   33.2192   20.7385 H   0  0  0  0  0  0  0  0  0  0  0  0
   35.8477   40.4120   28.1634 H   0  0  0  0  0  0  0  0  0  0  0  0
   34.1631   39.9165   26.3954 H   0  0  0  0  0  0  0  0  0  0  0  0
   35.1611   36.5230   29.9195 H   0  0  0  0  0  0  0  0  0  0  0  0
  1 22  1  0
  1  2  2  0
  1 11  1  0
  2  3  1  0
  2 31  1  0
  3  4  2  0
  3  9  1  0
  4  5  1  0
  4 32  1  0
  5  6  2  0
  6  8  1  0
  6  7  1  0
  7 13  1  0
  7 33  1  0
  8  9  2  0
  9 10  1  0
 10 11  1  0
 10 19  1  0
 11 12  2  0
 13 18  1  0
 13 14  1  0
 13 34  1  0
 14 15  1  0
 14 35  1  0
 14 36  1  0
 15 16  1  0
 15 37  1  0
 15 38  1  0
 16 17  1  0
 17 18  1  0
 17 39  1  0
 17 40  1  0
 18 41  1  0
 18 42  1  0
 19 20  1  0
 19 21  1  0
 19 43  1  0
 20 21  1  0
 20 44  1  0
 20 45  1  0
 21 46  1  0
 21 47  1  0
 22 25  1  0
 23 29  2  0
 23 24  1  0
 23 48  1  0
 24 25  2  0
 24 49  1  0
 25 26  1  0
 26 27  1  0
 26 28  2  0
 28 29  1  0
 28 50  1  0
 29 30  1  0
M  END
>  <s_m_entry_id>  (1) 
1386

>  <MODEL>  (1) 
1

>  <REMARK>  (1) 
 VINA RESULT:    -7.522      0.000      0.000
 INTER + INTRA:          -8.812
 INTER:                  -9.282
 INTRA:                   0.469
 UNBOUND:                 0.469
  Name = /scratch/kmzp800/tmp5ddzfybu/tmp2qami0op.pdb
  4 active torsions:
  status: ('A' for Active; 'I' for Inactive)
    1  A    between atoms: C3_3  and  O1_4
    2  A    between atoms: O1_4  and  C4_5
    3  A    between atoms: N2_11  and  C9_12
    4  A    between atoms: N4_20  and  C15_21
                            x       y       z     vdW  Elec       q    Type
                         _______ _______ _______ _____ _____    ______ ____

>  <TORSDO>  (1) 
F 4

>  <grid_id>  (1) 
p38-prepared

>  <grid_path>  (1) 
/projects/mai/users/kmzp800_harry/pmx_colab/docking_jobs/p38/vina_docking/input_files/p38_vina.pdbqt

>  <grid_filename>  (1) 
p38_vina.pdbqt

>  <docking_score>  (1) 
-7.522

>  <compound_name>  (1) 
lig_p38a_2m

>  <index_string>  (1) 
31:0:0

>  <s_m_Source_Path>  (1) 
/projects/mai/users/kmzp800_harry/pmx_colab/docking_jobs/p38

>  <s_m_Source_File>  (1) 
p38_confs_vina_naive.sdf

>  <i_m_Source_File_Index>  (1) 
33

$$$$
