17:0:0
     RDKit          3D

 60 63  0  0  1  0  0  0  0  0999 V2000
   40.9630    9.5590   19.0110 C   0  0  0  0  0  0  0  0  0  0  0  0
   41.8270    8.4810   18.7960 C   0  0  0  0  0  0  0  0  0  0  0  0
   42.9880    8.6530   18.0380 C   0  0  0  0  0  0  0  0  0  0  0  0
   43.2900    9.9040   17.4930 C   0  0  0  0  0  0  0  0  0  0  0  0
   42.4360   10.9960   17.6980 C   0  0  0  0  0  0  0  0  0  0  0  0
   41.2770   10.8110   18.4630 C   0  0  0  0  0  0  0  0  0  0  0  0
   42.7480   12.3410   17.1650 C   0  0  0  0  0  0  0  0  0  0  0  0
   43.6190   13.5080   18.0140 S   0  0  0  0  0  0  0  0  0  0  0  0
   43.5880   14.7020   16.8340 C   0  0  0  0  0  0  0  0  0  0  0  0
   42.8930   14.1930   15.7280 C   0  0  0  0  0  0  0  0  0  0  0  0
   42.4080   12.8880   15.9200 C   0  0  0  0  0  0  0  0  0  0  0  0
   41.3810   12.0030   14.5630 Br  0  0  0  0  0  0  0  0  0  0  0  0
   44.1120   16.0610   17.0420 C   0  0  0  0  0  0  0  0  0  0  0  0
   44.7370   16.6390   16.1150 O   0  0  0  0  0  0  0  0  0  0  0  0
   43.9820   16.6940   18.2710 O   0  0  0  0  0  0  0  0  0  0  0  0
   42.6940   14.8620   14.5130 O   0  0  0  0  0  0  0  0  0  0  0  0
   41.6030   15.7400   14.2670 C   0  0  0  0  0  0  0  0  0  0  0  0
   42.0660   16.9460   13.5260 C   0  0  0  0  0  0  0  0  0  0  0  0
   43.1910   16.9450   12.9630 O   0  0  0  0  0  0  0  0  0  0  0  0
   41.2400   18.0570   13.4220 O   0  0  0  0  0  0  0  0  0  0  0  0
   39.7750    9.3620   19.7910 N   0  0  0  0  0  0  0  0  0  0  0  0
   36.7190    7.3250   17.6760 N   0  0  0  0  0  0  0  0  0  0  0  0
   37.1020    8.6510   17.1530 C   0  0  0  0  0  0  0  0  0  0  0  0
   38.3840    9.2350   17.7620 C   0  0  0  0  0  0  0  0  0  0  0  0
   38.4860    8.9260   19.2580 C   0  0  0  0  0  0  0  0  0  0  0  0
   38.2480    7.4460   19.5860 C   0  0  0  0  0  0  0  0  0  0  0  0
   37.8270    6.6510   18.3550 C   0  0  0  0  0  0  0  0  0  0  0  0
   36.2780    6.3380   16.3190 S   0  0  0  0  0  0  0  0  0  0  0  0
   35.0320    5.5650   16.6510 O   0  0  0  0  0  0  0  0  0  0  0  0
   36.0080    7.2130   15.1270 O   0  0  0  0  0  0  0  0  0  0  0  0
   37.6050    5.2050   15.9330 C   0  0  0  0  0  0  0  0  0  0  0  0
   39.9530    6.6340   12.6430 C   0  0  0  0  0  0  0  0  0  0  0  0
   40.0960    7.2130   13.9080 C   0  0  0  0  0  0  0  0  0  0  0  0
   39.3300    6.7460   14.9800 C   0  0  0  0  0  0  0  0  0  0  0  0
   38.4190    5.7010   14.7890 C   0  0  0  0  0  0  0  0  0  0  0  0
   38.2800    5.1200   13.5240 C   0  0  0  0  0  0  0  0  0  0  0  0
   39.0450    5.5860   12.4520 C   0  0  0  0  0  0  0  0  0  0  0  0
   41.5922    7.4955   19.2245 H   0  0  0  0  0  0  0  0  0  0  0  0
   43.6653    7.8027   17.8700 H   0  0  0  0  0  0  0  0  0  0  0  0
   44.2061   10.0326   16.8979 H   0  0  0  0  0  0  0  0  0  0  0  0
   40.6020   11.6620   18.6367 H   0  0  0  0  0  0  0  0  0  0  0  0
   40.8434   15.2159   13.6684 H   0  0  0  0  0  0  0  0  0  0  0  0
   41.1735   16.0548   15.2295 H   0  0  0  0  0  0  0  0  0  0  0  0
   39.8352    9.5415   20.8035 H   0  0  0  0  0  0  0  0  0  0  0  0
   37.2488    8.5614   16.0665 H   0  0  0  0  0  0  0  0  0  0  0  0
   36.2878    9.3390   17.4246 H   0  0  0  0  0  0  0  0  0  0  0  0
   39.2540    8.8012   17.2473 H   0  0  0  0  0  0  0  0  0  0  0  0
   38.3592   10.3275   17.6362 H   0  0  0  0  0  0  0  0  0  0  0  0
   37.6792    9.4933   19.7451 H   0  0  0  0  0  0  0  0  0  0  0  0
   39.1784    7.0163   19.9857 H   0  0  0  0  0  0  0  0  0  0  0  0
   37.4346    7.3871   20.3242 H   0  0  0  0  0  0  0  0  0  0  0  0
   37.5067    5.6449   18.6636 H   0  0  0  0  0  0  0  0  0  0  0  0
   38.6805    6.5767   17.6650 H   0  0  0  0  0  0  0  0  0  0  0  0
   38.2533    5.0975   16.8151 H   0  0  0  0  0  0  0  0  0  0  0  0
   37.1662    4.2355   15.6546 H   0  0  0  0  0  0  0  0  0  0  0  0
   40.5539    7.0021   11.7984 H   0  0  0  0  0  0  0  0  0  0  0  0
   40.8108    8.0353   14.0593 H   0  0  0  0  0  0  0  0  0  0  0  0
   39.4435    7.2006   15.9752 H   0  0  0  0  0  0  0  0  0  0  0  0
   37.5677    4.2955   13.3733 H   0  0  0  0  0  0  0  0  0  0  0  0
   38.9338    5.1292   11.4575 H   0  0  0  0  0  0  0  0  0  0  0  0
  1 21  1  0
  1  2  2  0
  1  6  1  0
  2  3  1  0
  2 38  1  0
  3  4  2  0
  3 39  1  0
  4  5  1  0
  4 40  1  0
  5  6  2  0
  5  7  1  0
  6 41  1  0
  7  8  1  0
  7 11  2  0
  8  9  1  0
  9 13  1  0
  9 10  2  0
 10 11  1  0
 10 16  1  0
 11 12  1  0
 13 15  1  0
 13 14  2  0
 16 17  1  0
 17 18  1  0
 17 42  1  0
 17 43  1  0
 18 19  2  0
 18 20  1  0
 21 25  1  0
 21 44  1  0
 22 27  1  0
 22 23  1  0
 22 28  1  0
 23 24  1  0
 23 45  1  0
 23 46  1  0
 24 25  1  0
 24 47  1  0
 24 48  1  0
 25 26  1  0
 25 49  1  0
 26 27  1  0
 26 50  1  0
 26 51  1  0
 27 52  1  0
 27 53  1  0
 28 29  2  0
 28 30  2  0
 28 31  1  0
 31 35  1  0
 31 54  1  0
 31 55  1  0
 32 33  2  0
 32 37  1  0
 32 56  1  0
 33 34  1  0
 33 57  1  0
 34 35  2  0
 34 58  1  0
 35 36  1  0
 36 37  2  0
 36 59  1  0
 37 60  1  0
M  CHG  2  15  -1  20  -1
M  END
>  <s_m_entry_id>  (1) 
1234

>  <MODEL>  (1) 
2

>  <REMARK>  (1) 
 VINA RESULT:    -8.115      1.977      2.866
 INTER + INTRA:         -13.507
 INTER:                 -11.660
 INTRA:                  -1.847
 UNBOUND:                -0.647
  Name = /scratch/kmzp800/tmpuubyye7i/tmpfyyhdp92.pdb
  10 active torsions:
  status: ('A' for Active; 'I' for Inactive)
    1  A    between atoms: C4_4  and  C5_5
    2  A    between atoms: C5_5  and  S1_6
    3  A    between atoms: S1_6  and  N1_9
    4  A    between atoms: C8_12  and  N2_13
    5  A    between atoms: N2_13  and  C9_14
    6  A    between atoms: C13_18  and  C14_19
    7  A    between atoms: C15_21  and  C16_22
    8  A    between atoms: C17_25  and  O5_26
    9  A    between atoms: O5_26  and  C18_27
   10  A    between atoms: C18_27  and  C19_28
                            x       y       z     vdW  Elec       q    Type
                         _______ _______ _______ _____ _____    ______ ____

>  <TORSDO>  (1) 
F 10

>  <grid_id>  (1) 
ptp1b-prepared

>  <grid_path>  (1) 
ptp1b_vina.pdbqt

>  <grid_filename>  (1) 
ptp1b_vina.pdbqt

>  <docking_score>  (1) 
-8.115

>  <compound_name>  (1) 
lig_20667_2qbp

>  <index_string>  (1) 
17:0:0

>  <s_m_Source_Path>  (1) 
/projects/mai/users/kmzp800_harry/pmx_colab/docking_jobs/ptp1b

>  <s_m_Source_File>  (1) 
ptp1b_confs_vina_mcs.sdf

>  <i_m_Source_File_Index>  (1) 
18

$$$$
