12:0:0
     RDKit          3D

 59 63  0  0  1  0  0  0  0  0999 V2000
   33.7950   35.9110   20.1670 C   0  0  0  0  0  0  0  0  0  0  0  0
   34.0400   37.2760   20.2750 C   0  0  0  0  0  0  0  0  0  0  0  0
   33.7200   37.9470   21.4470 C   0  0  0  0  0  0  0  0  0  0  0  0
   33.9630   39.3110   21.5850 C   0  0  0  0  0  0  0  0  0  0  0  0
   33.6430   39.9390   22.7470 N   0  0  0  0  0  0  0  0  0  0  0  0
   33.0880   39.2570   23.7830 C   0  0  0  0  0  0  0  0  0  0  0  0
   32.7630   39.9490   24.9910 N   0  0  0  0  0  0  0  0  0  0  0  0
   32.8430   37.9230   23.6640 N   0  0  0  0  0  0  0  0  0  0  0  0
   33.1450   37.2460   22.5210 C   0  0  0  0  0  0  0  0  0  0  0  0
   32.8840   35.9050   22.4080 N   0  0  0  0  0  0  0  0  0  0  0  0
   33.1840   35.2340   21.2450 C   0  0  0  0  0  0  0  0  0  0  0  0
   32.8970   34.0100   21.1260 O   0  0  0  0  0  0  0  0  0  0  0  0
   32.2610   35.2170   23.5480 C   0  0  0  0  0  0  0  0  0  0  0  0
   30.7670   34.9290   23.2980 C   0  0  0  0  0  0  0  0  0  0  0  0
   30.4640   33.4640   23.0010 C   0  0  0  0  0  0  0  0  0  0  0  0
   30.9650   32.4660   24.3890 S   0  0  0  0  0  6  0  0  0  0  0  0
   29.8570   32.4030   25.4020 O   0  0  0  0  0  0  0  0  0  0  0  0
   31.3010   31.0790   23.9200 O   0  0  0  0  0  0  0  0  0  0  0  0
   32.4000   33.2280   25.1130 C   0  0  0  0  0  0  0  0  0  0  0  0
   33.1180   34.0400   24.0460 C   0  0  0  0  0  0  0  0  0  0  0  0
   32.1510   39.2890   26.1340 C   0  0  0  0  0  0  0  0  0  0  0  0
   31.0430   38.3460   25.6580 C   0  0  0  0  0  0  0  0  0  0  0  0
   30.6610   37.3270   26.7430 C   0  0  0  0  0  0  0  0  0  0  0  0
   31.1840   37.6920   27.9970 O   0  0  0  0  0  0  0  0  0  0  0  0
   32.5760   37.5160   27.9030 C   0  0  0  0  0  0  0  0  0  0  0  0
   33.2120   38.5490   26.9590 C   0  0  0  0  0  0  0  0  0  0  0  0
   34.1290   35.2680   18.9660 O   0  0  0  0  0  0  0  0  0  0  0  0
   36.2560   35.8660   16.0060 C   0  0  0  0  0  0  0  0  0  0  0  0
   35.1450   35.6050   16.8110 C   0  0  0  0  0  0  0  0  0  0  0  0
   35.2770   35.5260   18.2030 C   0  0  0  0  0  0  0  0  0  0  0  0
   36.5420   35.7460   18.7880 C   0  0  0  0  0  0  0  0  0  0  0  0
   36.6990   35.7480   20.1350 F   0  0  0  0  0  0  0  0  0  0  0  0
   37.6500   36.0070   17.9780 C   0  0  0  0  0  0  0  0  0  0  0  0
   37.5100   36.0610   16.5890 C   0  0  0  0  0  0  0  0  0  0  0  0
   38.5880   36.3130   15.8090 F   0  0  0  0  0  0  0  0  0  0  0  0
   34.4871   37.8233   19.4320 H   0  0  0  0  0  0  0  0  0  0  0  0
   34.4123   39.8782   20.7566 H   0  0  0  0  0  0  0  0  0  0  0  0
   32.9706   40.9559   25.0547 H   0  0  0  0  0  0  0  0  0  0  0  0
   32.2444   35.8976   24.4120 H   0  0  0  0  0  0  0  0  0  0  0  0
   30.2020   35.2253   24.1941 H   0  0  0  0  0  0  0  0  0  0  0  0
   30.4746   35.5038   22.4069 H   0  0  0  0  0  0  0  0  0  0  0  0
   29.3846   33.3395   22.8295 H   0  0  0  0  0  0  0  0  0  0  0  0
   31.0147   33.1486   22.1025 H   0  0  0  0  0  0  0  0  0  0  0  0
   32.0912   33.8901   25.9354 H   0  0  0  0  0  0  0  0  0  0  0  0
   33.0738   32.4535   25.5082 H   0  0  0  0  0  0  0  0  0  0  0  0
   33.3492   33.3830   23.1946 H   0  0  0  0  0  0  0  0  0  0  0  0
   34.0365   34.4508   24.4904 H   0  0  0  0  0  0  0  0  0  0  0  0
   31.6952   40.0455   26.7898 H   0  0  0  0  0  0  0  0  0  0  0  0
   30.1549   38.9411   25.3989 H   0  0  0  0  0  0  0  0  0  0  0  0
   31.4150   37.7929   24.7829 H   0  0  0  0  0  0  0  0  0  0  0  0
   29.5646   37.2741   26.8142 H   0  0  0  0  0  0  0  0  0  0  0  0
   31.0817   36.3498   26.4636 H   0  0  0  0  0  0  0  0  0  0  0  0
   33.0186   37.6263   28.9040 H   0  0  0  0  0  0  0  0  0  0  0  0
   32.7703   36.5122   27.4974 H   0  0  0  0  0  0  0  0  0  0  0  0
   33.8994   38.0310   26.2741 H   0  0  0  0  0  0  0  0  0  0  0  0
   33.7497   39.2885   27.5705 H   0  0  0  0  0  0  0  0  0  0  0  0
   36.1434   35.9180   14.9130 H   0  0  0  0  0  0  0  0  0  0  0  0
   34.1579   35.4602   16.3478 H   0  0  0  0  0  0  0  0  0  0  0  0
   38.6367   36.1707   18.4358 H   0  0  0  0  0  0  0  0  0  0  0  0
  1  2  2  0
  1 11  1  0
  1 27  1  0
  2  3  1  0
  3  4  2  0
  3  9  1  0
  4  5  1  0
  5  6  2  0
  6  7  1  0
  6  8  1  0
  7 21  1  0
  8  9  2  0
  9 10  1  0
 10 13  1  0
 10 11  1  0
 11 12  2  0
 13 20  1  0
 13 14  1  0
 14 15  1  0
 15 16  1  0
 16 19  1  0
 16 17  2  0
 16 18  2  0
 19 20  1  0
 21 26  1  0
 21 22  1  0
 22 23  1  0
 23 24  1  0
 24 25  1  0
 25 26  1  0
 27 30  1  0
 28 34  2  0
 28 29  1  0
 29 30  2  0
 30 31  1  0
 31 32  1  0
 31 33  2  0
 33 34  1  0
 34 35  1  0
  2 36  1  0
  4 37  1  0
  7 38  1  0
 13 39  1  0
 14 40  1  0
 14 41  1  0
 15 42  1  0
 15 43  1  0
 19 44  1  0
 19 45  1  0
 20 46  1  0
 20 47  1  0
 21 48  1  0
 22 49  1  0
 22 50  1  0
 23 51  1  0
 23 52  1  0
 25 53  1  0
 25 54  1  0
 26 55  1  0
 26 56  1  0
 28 57  1  0
 29 58  1  0
 33 59  1  0
M  END
>  <s_m_entry_id>  (1) 
62

>  <MODEL>  (1) 
3

>  <REMARK>  (1) 
 VINA RESULT:   -15.283      0.843      1.198
 INTER + INTRA:         -11.216
 INTER:                 -11.568
 INTRA:                   0.352
 UNBOUND:                 7.641
  Name = /scratch/kmzp800/tmpr8ip7kwy/tmp6p3k8mds.pdb
  4 active torsions:
  status: ('A' for Active; 'I' for Inactive)
    1  A    between atoms: C3_3  and  O1_4
    2  A    between atoms: O1_4  and  C4_5
    3  A    between atoms: N2_11  and  C9_12
    4  A    between atoms: N4_20  and  C15_21
                            x       y       z     vdW  Elec       q    Type
                         _______ _______ _______ _____ _____    ______ ____

>  <TORSDO>  (1) 
F 4

>  <grid_id>  (1) 
p38-prepared

>  <grid_path>  (1) 
/projects/mai/users/kmzp800_harry/pmx_colab/docking_jobs/p38/vina_docking/input_files/p38_vina.pdbqt

>  <grid_filename>  (1) 
p38_vina.pdbqt

>  <docking_score>  (1) 
-15.283

>  <compound_name>  (1) 
lig_p38a_2q

>  <index_string>  (1) 
12:0:0

$$$$
