7:0:0
     RDKit          3D

 43 46  0  0  1  0  0  0  0  0999 V2000
   34.6079   35.1685   21.2427 C   0  0  0  0  0  0  0  0  0  0  0  0
   34.1108   39.0266   23.9478 C   0  0  0  0  0  0  0  0  0  0  0  0
   34.7303   38.0071   21.5362 C   0  0  0  0  0  0  0  0  0  0  0  0
   35.0668   37.3690   20.2570 C   0  0  0  0  0  0  0  0  0  0  0  0
   34.3694   37.1815   22.6163 C   0  0  0  0  0  0  0  0  0  0  0  0
   34.7227   39.3945   21.7791 C   0  0  0  0  0  0  0  0  0  0  0  0
   35.0203   36.0206   20.1271 C   0  0  0  0  0  0  0  0  0  0  0  0
   34.0496   35.2194   23.1859 H   0  0  0  0  0  0  0  0  0  0  0  0
   34.4228   39.9058   22.9948 N   0  0  0  0  0  0  0  0  0  0  0  0
   34.5292   33.9492   21.1573 O   0  0  0  0  0  0  0  0  0  0  0  0
   34.3282   35.7899   22.4022 N   0  0  0  0  0  0  0  0  0  0  0  0
   34.0632   37.7024   23.8142 N   0  0  0  0  0  0  0  0  0  0  0  0
   33.8251   39.5493   25.1917 N   0  0  0  0  0  0  0  0  0  0  0  0
   35.3352   38.0079   19.4287 H   0  0  0  0  0  0  0  0  0  0  0  0
   34.9525   40.0949   20.9960 H   0  0  0  0  0  0  0  0  0  0  0  0
   33.8474   40.5597   25.2871 H   0  0  0  0  0  0  0  0  0  0  0  0
   33.2734   38.4001   28.7761 C   0  0  0  0  0  0  0  0  0  0  0  0
   33.9018   39.2132   27.6356 C   0  0  0  0  0  0  0  0  0  0  0  0
   33.2776   38.7844   26.3053 C   0  0  0  0  0  0  0  0  0  0  0  0
   31.7514   38.9256   26.3885 C   0  0  0  0  0  0  0  0  0  0  0  0
   31.2156   38.1561   27.6071 C   0  0  0  0  0  0  0  0  0  0  0  0
   31.8638   38.6082   28.7922 O   0  0  0  0  0  0  0  0  0  0  0  0
   33.6852   38.7196   29.7335 H   0  0  0  0  0  0  0  0  0  0  0  0
   33.4975   37.3370   28.6718 H   0  0  0  0  0  0  0  0  0  0  0  0
   33.7363   40.2782   27.8079 H   0  0  0  0  0  0  0  0  0  0  0  0
   34.9812   39.0573   27.6169 H   0  0  0  0  0  0  0  0  0  0  0  0
   33.5112   37.7271   26.1778 H   0  0  0  0  0  0  0  0  0  0  0  0
   31.2823   38.5512   25.4778 H   0  0  0  0  0  0  0  0  0  0  0  0
   31.4762   39.9780   26.4743 H   0  0  0  0  0  0  0  0  0  0  0  0
   30.1427   38.3173   27.7098 H   0  0  0  0  0  0  0  0  0  0  0  0
   31.3653   37.0823   27.4860 H   0  0  0  0  0  0  0  0  0  0  0  0
   35.2572   35.3610   18.9487 O   0  0  0  0  0  0  0  0  0  0  0  0
   37.9370   36.6044   15.9925 C   0  0  0  0  0  0  0  0  0  0  0  0
   38.4337   36.3493   17.2889 C   0  0  0  0  0  0  0  0  0  0  0  0
   37.5391   36.0355   18.3330 C   0  0  0  0  0  0  0  0  0  0  0  0
   36.1753   35.8069   18.0352 C   0  0  0  0  0  0  0  0  0  0  0  0
   35.7519   35.8738   16.7006 C   0  0  0  0  0  0  0  0  0  0  0  0
   36.5956   36.3492   15.6900 C   0  0  0  0  0  0  0  0  0  0  0  0
   38.7205   37.1493   15.0448 F   0  0  0  0  0  0  0  0  0  0  0  0
   39.4730   36.5423   17.5104 H   0  0  0  0  0  0  0  0  0  0  0  0
   37.9991   35.9494   19.6008 F   0  0  0  0  0  0  0  0  0  0  0  0
   34.7326   35.6064   16.4598 H   0  0  0  0  0  0  0  0  0  0  0  0
   36.2214   36.5241   14.6898 H   0  0  0  0  0  0  0  0  0  0  0  0
  1  7  1  0
  1 10  2  0
  1 11  1  0
  2  9  1  0
  2 12  2  0
  2 13  1  0
  3  4  1  0
  3  5  2  0
  3  6  1  0
  4  7  2  0
  4 14  1  0
  5 11  1  0
  5 12  1  0
  6  9  2  0
  6 15  1  0
  7 32  1  0
  8 11  1  0
 13 16  1  0
 13 19  1  0
 17 18  1  0
 17 22  1  0
 17 23  1  0
 17 24  1  0
 18 19  1  0
 18 25  1  0
 18 26  1  0
 19 20  1  0
 19 27  1  0
 20 21  1  0
 20 28  1  0
 20 29  1  0
 21 22  1  0
 21 30  1  0
 21 31  1  0
 32 36  1  0
 33 34  2  0
 33 38  1  0
 33 39  1  0
 34 35  1  0
 34 40  1  0
 35 36  2  0
 35 41  1  0
 36 37  1  0
 37 38  2  0
 37 42  1  0
 38 43  1  0
M  END
>  <s_m_entry_id>  (1) 
825

>  <s_m_Source_Path>  (1) 
/projects/mai/users/kmzp800_harry/pmx_colab/docking_jobs/p38/glide-dock_SP_p38_mcs_docking_2

>  <s_m_Source_File>  (1) 
glide-dock_SP_p38_mcs_docking_2_pv.maegz

>  <i_m_Source_File_Index>  (1) 
9

>  <s_pdb_PDB_TITLE>  (1) 
MX MODEL

>  <r_i_docking_score>  (1) 
-7.40290271828798

>  <r_i_glide_gscore>  (1) 
-7.40290271828798

>  <r_i_glide_emodel>  (1) 
-51.5149548874173

>  <index_string>  (1) 
7:0:0

$$$$
