10:0:0
     RDKit          3D

 31 32  0  0  1  0  0  0  0  0999 V2000
   42.3870   12.7070   15.9240 C   0  0  0  0  0  0  0  0  0  0  0  0
   43.3500   13.4440   17.0940 S   0  0  0  0  0  0  0  0  0  0  0  0
   43.4760   14.9380   16.3440 C   0  0  0  0  0  0  0  0  0  0  0  0
   42.7670   14.8940   15.1470 C   0  0  0  0  0  0  0  0  0  0  0  0
   42.1360   13.6470   14.9090 C   0  0  0  0  0  0  0  0  0  0  0  0
   40.9060   13.3400   13.4620 Br  0  0  0  0  0  0  0  0  0  0  0  0
   40.3610    9.5350   15.4110 C   0  0  0  0  0  0  0  0  0  0  0  0
   41.0780    8.6280   16.1960 C   0  0  0  0  0  0  0  0  0  0  0  0
   42.2140    9.0450   16.8940 C   0  0  0  0  0  0  0  0  0  0  0  0
   42.6260   10.3830   16.7990 C   0  0  0  0  0  0  0  0  0  0  0  0
   41.9100   11.3070   16.0220 C   0  0  0  0  0  0  0  0  0  0  0  0
   40.7790   10.8640   15.3230 C   0  0  0  0  0  0  0  0  0  0  0  0
   42.9130    8.1150   17.6680 O   0  0  0  0  0  0  0  0  0  0  0  0
   44.0000    8.4780   18.5080 C   0  0  0  0  0  0  0  0  0  0  0  0
   44.2310   16.0820   16.8800 C   0  0  0  0  0  0  0  0  0  0  0  0
   45.0110   16.7280   16.1320 O   0  0  0  0  0  0  0  0  0  0  0  0
   44.0930   16.4610   18.2090 O   0  0  0  0  0  0  0  0  0  0  0  0
   42.7040   16.0140   14.3040 O   0  0  0  0  0  0  0  0  0  0  0  0
   41.7910   17.0900   14.4690 C   0  0  0  0  0  0  0  0  0  0  0  0
   40.9420   17.2330   13.2520 C   0  0  0  0  0  0  0  0  0  0  0  0
   41.4740   17.4880   12.1400 O   0  0  0  0  0  0  0  0  0  0  0  0
   39.5630   17.1250   13.3510 O   0  0  0  0  0  0  0  0  0  0  0  0
   39.4675    9.2018   14.8626 H   0  0  0  0  0  0  0  0  0  0  0  0
   40.7465    7.5814   16.2646 H   0  0  0  0  0  0  0  0  0  0  0  0
   43.5240   10.7129   17.3419 H   0  0  0  0  0  0  0  0  0  0  0  0
   40.2143   11.5715   14.6980 H   0  0  0  0  0  0  0  0  0  0  0  0
   43.6990    8.3775   19.5612 H   0  0  0  0  0  0  0  0  0  0  0  0
   44.8558    7.8169   18.3065 H   0  0  0  0  0  0  0  0  0  0  0  0
   44.2868    9.5207   18.3065 H   0  0  0  0  0  0  0  0  0  0  0  0
   41.1485   16.8917   15.3395 H   0  0  0  0  0  0  0  0  0  0  0  0
   42.3561   18.0208   14.6250 H   0  0  0  0  0  0  0  0  0  0  0  0
  1 11  1  0
  1  2  1  0
  1  5  2  0
  2  3  1  0
  3 15  1  0
  3  4  2  0
  4  5  1  0
  4 18  1  0
  5  6  1  0
  7  8  2  0
  7 12  1  0
  7 23  1  0
  8  9  1  0
  8 24  1  0
  9 13  1  0
  9 10  2  0
 10 11  1  0
 10 25  1  0
 11 12  2  0
 12 26  1  0
 13 14  1  0
 14 27  1  0
 14 28  1  0
 14 29  1  0
 15 17  1  0
 15 16  2  0
 18 19  1  0
 19 20  1  0
 19 30  1  0
 19 31  1  0
 20 22  1  0
 20 21  2  0
M  CHG  2  17  -1  22  -1
M  END
>  <s_m_entry_id>  (1) 
1227

>  <MODEL>  (1) 
3

>  <REMARK>  (1) 
 VINA RESULT:    -6.137      2.025      2.529
 INTER + INTRA:          -9.035
 INTER:                  -8.989
 INTRA:                  -0.046
 UNBOUND:                -0.745
  Name = /scratch/kmzp800/tmp3ojuk4wq/tmp7y9b7yqz.pdb
  7 active torsions:
  status: ('A' for Active; 'I' for Inactive)
    1  A    between atoms: C3_3  and  O1_4
    2  A    between atoms: O1_4  and  C4_5
    3  A    between atoms: C6_7  and  C7_8
    4  A    between atoms: C8_10  and  C9_11
    5  A    between atoms: C10_14  and  O4_15
    6  A    between atoms: O4_15  and  C11_16
    7  A    between atoms: C11_16  and  C12_17
                            x       y       z     vdW  Elec       q    Type
                         _______ _______ _______ _____ _____    ______ ____

>  <TORSDO>  (1) 
F 6

>  <grid_id>  (1) 
ptp1b-prepared

>  <grid_path>  (1) 
ptp1b_vina.pdbqt

>  <grid_filename>  (1) 
ptp1b_vina.pdbqt

>  <docking_score>  (1) 
-6.137

>  <compound_name>  (1) 
lig_23467

>  <index_string>  (1) 
10:0:0

>  <s_m_Source_Path>  (1) 
/projects/mai/users/kmzp800_harry/pmx_colab/docking_jobs/ptp1b

>  <s_m_Source_File>  (1) 
ptp1b_confs_vina_mcs.sdf

>  <i_m_Source_File_Index>  (1) 
11

$$$$
