36:0:0
     RDKit          3D

 51 55  0  0  1  0  0  0  0  0999 V2000
   -4.4247   -2.5841   13.4142 C   0  0  0  0  0  0  0  0  0  0  0  0
   -3.8920   -2.3486   14.7455 N   0  0  0  0  0  0  0  0  0  0  0  0
   -4.5921   -2.8505   15.9294 C   0  0  0  0  0  0  0  0  0  0  0  0
   -5.7264   -1.9151   16.3631 C   0  0  0  0  0  0  0  0  0  0  0  0
   -5.1849   -0.7852   17.0177 O   0  0  0  0  0  0  0  0  0  0  0  0
   -2.5149   -2.1024   14.8294 C   0  0  0  0  0  0  0  0  0  0  0  0
   -1.9106   -1.1062   14.0330 C   0  0  0  0  0  0  0  0  0  0  0  0
   -0.5350   -0.8360   14.1603 C   0  0  0  0  0  0  0  0  0  0  0  0
    0.2576   -1.5737   15.0667 C   0  0  0  0  0  0  0  0  0  0  0  0
    1.6236   -1.3555   15.2897 N   0  0  0  0  0  0  0  0  0  0  0  0
    2.5328   -0.4340   14.7336 C   0  0  0  0  0  0  0  0  0  0  0  0
    2.1937    0.3770   13.7596 N   0  0  0  0  0  0  0  0  0  0  0  0
    3.1216    1.2579   13.2344 C   0  0  0  0  0  0  0  0  0  0  0  0
    4.4229    1.2918   13.6853 C   0  0  0  0  0  0  0  0  0  0  0  0
    4.7575    0.4922   14.7290 N   0  0  0  0  0  0  0  0  0  0  0  0
    5.9045    0.3857   15.4879 C   0  0  0  0  0  0  0  0  0  0  0  0
    5.6102   -0.4955   16.4961 C   0  0  0  0  0  0  0  0  0  0  0  0
    4.3659   -1.0590   16.3282 N   0  0  0  0  0  0  0  0  0  0  0  0
    3.8347   -0.4125   15.2963 C   0  0  0  0  0  0  0  0  0  0  0  0
    2.6503    2.1660   12.1582 C   0  0  0  0  0  0  0  0  0  0  0  0
    3.5594    2.6750   11.1911 C   0  0  0  0  0  0  0  0  0  0  0  0
    3.1526    3.5030   10.1318 C   0  0  0  0  0  0  0  0  0  0  0  0
    1.7974    3.8627   10.0231 C   0  0  0  0  0  0  0  0  0  0  0  0
    0.9931    4.6399    9.1340 C   0  0  0  0  0  0  0  0  0  0  0  0
   -0.2639    4.6501    9.5096 N   0  0  0  0  0  0  0  0  0  0  0  0
   -0.3266    3.9124   10.6430 N   0  0  0  0  0  0  0  0  0  0  0  0
    0.8924    3.3864   11.0176 C   0  0  0  0  0  0  0  0  0  0  0  0
    1.2950    2.5516   12.0710 C   0  0  0  0  0  0  0  0  0  0  0  0
   -0.3469   -2.5969   15.8175 C   0  0  0  0  0  0  0  0  0  0  0  0
   -1.7153   -2.8478   15.7125 C   0  0  0  0  0  0  0  0  0  0  0  0
   -3.6695   -3.0206   12.7567 H   0  0  0  0  0  0  0  0  0  0  0  0
   -5.2666   -3.2753   13.4526 H   0  0  0  0  0  0  0  0  0  0  0  0
   -4.7667   -1.6493   12.9733 H   0  0  0  0  0  0  0  0  0  0  0  0
   -3.9232   -2.9725   16.7775 H   0  0  0  0  0  0  0  0  0  0  0  0
   -4.9863   -3.8426   15.6990 H   0  0  0  0  0  0  0  0  0  0  0  0
   -6.4008   -2.4242   17.0545 H   0  0  0  0  0  0  0  0  0  0  0  0
   -6.3161   -1.5964   15.5078 H   0  0  0  0  0  0  0  0  0  0  0  0
   -4.7964   -1.0642   17.8400 H   0  0  0  0  0  0  0  0  0  0  0  0
   -2.5019   -0.5311   13.3362 H   0  0  0  0  0  0  0  0  0  0  0  0
   -0.1121   -0.0515   13.5584 H   0  0  0  0  0  0  0  0  0  0  0  0
    2.0650   -2.0007   15.9346 H   0  0  0  0  0  0  0  0  0  0  0  0
    5.1948    1.9450   13.2984 H   0  0  0  0  0  0  0  0  0  0  0  0
    6.7714    0.9846   15.2460 H   0  0  0  0  0  0  0  0  0  0  0  0
    6.1759   -0.7724   17.3623 H   0  0  0  0  0  0  0  0  0  0  0  0
    4.6009    2.4129   11.2424 H   0  0  0  0  0  0  0  0  0  0  0  0
    3.8795    3.8500    9.4093 H   0  0  0  0  0  0  0  0  0  0  0  0
    1.2905    5.1777    8.2454 H   0  0  0  0  0  0  0  0  0  0  0  0
   -1.2099    3.7955   11.1221 H   0  0  0  0  0  0  0  0  0  0  0  0
    0.5795    2.1938   12.8007 H   0  0  0  0  0  0  0  0  0  0  0  0
    0.2249   -3.2085   16.4974 H   0  0  0  0  0  0  0  0  0  0  0  0
   -2.1313   -3.6353   16.3184 H   0  0  0  0  0  0  0  0  0  0  0  0
  1  2  1  0
  1 31  1  0
  1 32  1  0
  1 33  1  0
  2  3  1  0
  2  6  1  0
  3  4  1  0
  3 34  1  0
  3 35  1  0
  4  5  1  0
  4 36  1  0
  4 37  1  0
  5 38  1  0
  6  7  2  0
  6 30  1  0
  7  8  1  0
  7 39  1  0
  8  9  2  0
  8 40  1  0
  9 10  1  0
  9 29  1  0
 10 11  1  0
 10 41  1  0
 11 12  2  0
 11 19  1  0
 12 13  1  0
 13 14  2  0
 13 20  1  0
 14 15  1  0
 14 42  1  0
 15 16  1  0
 15 19  1  0
 16 17  2  0
 16 43  1  0
 17 18  1  0
 17 44  1  0
 18 19  2  0
 20 21  2  0
 20 28  1  0
 21 22  1  0
 21 45  1  0
 22 23  2  0
 22 46  1  0
 23 24  1  0
 23 27  1  0
 24 25  2  0
 24 47  1  0
 25 26  1  0
 26 27  1  0
 26 48  1  0
 27 28  2  0
 28 49  1  0
 29 30  2  0
 29 50  1  0
 30 51  1  0
M  END
>  <s_m_entry_id>  (1) 
1093

>  <IC50[nM]>  (1) 
7.6

>  <s_m_Source_Path>  (1) 
/projects/mai/users/kmzp800_harry/pmx_colab/docking_jobs/syk

>  <s_m_Source_File>  (1) 
tnks2_lig.sdf

>  <i_m_Source_File_Index>  (1) 
41

>  <s_m_job_name>  (1) 
glide-dock_SP_syk_mcs

>  <r_i_docking_score>  (1) 
-7.0283213963991

>  <r_i_glide_gscore>  (1) 
-7.0283213963991

>  <r_i_glide_emodel>  (1) 
-48.1520131842679

>  <index_string>  (1) 
36:0:0

$$$$
