4:0:0
     RDKit          3D

 45 47  0  0  1  0  0  0  0  0999 V2000
   32.7421   34.7013   14.3845 F   0  0  0  0  0  0  0  0  0  0  0  0
   33.4627   34.9178   15.5100 C   0  0  0  0  0  0  0  0  0  0  0  0
   34.8616   34.9187   15.4891 C   0  0  0  0  0  0  0  0  0  0  0  0
   35.6090   35.1493   16.6504 C   0  0  0  0  0  0  0  0  0  0  0  0
   36.9594   35.1978   16.5714 F   0  0  0  0  0  0  0  0  0  0  0  0
   34.9521   35.2308   17.8936 C   0  0  0  0  0  0  0  0  0  0  0  0
   33.5402   35.2332   17.9213 C   0  0  0  0  0  0  0  0  0  0  0  0
   32.8168   35.1493   16.7226 C   0  0  0  0  0  0  0  0  0  0  0  0
   35.7085   35.2309   19.0363 O   0  0  0  0  0  0  0  0  0  0  0  0
   35.1850   35.8255   20.1436 C   0  0  0  0  0  0  0  0  0  0  0  0
   35.2726   37.1615   20.2610 C   0  0  0  0  0  0  0  0  0  0  0  0
   34.5521   34.9977   21.1726 C   0  0  0  0  0  0  0  0  0  0  0  0
   34.3390   33.8028   20.9767 O   0  0  0  0  0  0  0  0  0  0  0  0
   34.1880   35.6293   22.3267 N   0  0  0  0  0  0  0  0  0  0  0  0
   33.6175   34.8413   23.4313 C   0  0  0  0  0  0  0  0  0  0  0  0
   34.2780   37.0507   22.5072 C   0  0  0  0  0  0  0  0  0  0  0  0
   34.8021   37.8355   21.4627 C   0  0  0  0  0  0  0  0  0  0  0  0
   33.8822   37.6538   23.6462 N   0  0  0  0  0  0  0  0  0  0  0  0
   33.9950   38.9728   23.7605 C   0  0  0  0  0  0  0  0  0  0  0  0
   34.4639   39.7988   22.8254 N   0  0  0  0  0  0  0  0  0  0  0  0
   34.8609   39.2284   21.6652 C   0  0  0  0  0  0  0  0  0  0  0  0
   33.6141   39.5493   24.9623 N   0  0  0  0  0  0  0  0  0  0  0  0
   33.0935   38.8904   26.1688 C   0  0  0  0  0  0  0  0  0  0  0  0
   32.8409   39.9951   27.2125 C   0  0  0  0  0  0  0  0  0  0  0  0
   31.7400   38.2013   25.8769 C   0  0  0  0  0  0  0  0  0  0  0  0
   34.1347   37.8841   26.7375 C   0  0  0  0  0  0  0  0  0  0  0  0
   33.7243   37.3170   27.9663 O   0  0  0  0  0  0  0  0  0  0  0  0
   35.3521   34.7471   14.5569 H   0  0  0  0  0  0  0  0  0  0  0  0
   32.9847   35.2951   18.8450 H   0  0  0  0  0  0  0  0  0  0  0  0
   31.7403   35.1493   16.7589 H   0  0  0  0  0  0  0  0  0  0  0  0
   35.7416   37.7571   19.4907 H   0  0  0  0  0  0  0  0  0  0  0  0
   33.7722   33.7646   23.3439 H   0  0  0  0  0  0  0  0  0  0  0  0
   34.0636   35.1325   24.3829 H   0  0  0  0  0  0  0  0  0  0  0  0
   32.5432   35.0180   23.4970 H   0  0  0  0  0  0  0  0  0  0  0  0
   35.2539   39.8879   20.9072 H   0  0  0  0  0  0  0  0  0  0  0  0
   33.7523   40.5497   25.0446 H   0  0  0  0  0  0  0  0  0  0  0  0
   32.4027   39.5989   28.1293 H   0  0  0  0  0  0  0  0  0  0  0  0
   33.7650   40.5043   27.4892 H   0  0  0  0  0  0  0  0  0  0  0  0
   32.1520   40.7491   26.8308 H   0  0  0  0  0  0  0  0  0  0  0  0
   31.2868   37.8190   26.7922 H   0  0  0  0  0  0  0  0  0  0  0  0
   31.0270   38.8963   25.4317 H   0  0  0  0  0  0  0  0  0  0  0  0
   31.8394   37.3522   25.2019 H   0  0  0  0  0  0  0  0  0  0  0  0
   35.0961   38.3767   26.8906 H   0  0  0  0  0  0  0  0  0  0  0  0
   34.3150   37.0553   26.0559 H   0  0  0  0  0  0  0  0  0  0  0  0
   34.3472   36.6490   28.2118 H   0  0  0  0  0  0  0  0  0  0  0  0
  1  2  1  0
  2  8  2  0
  2  3  1  0
  3  4  2  0
  3 28  1  0
  4  5  1  0
  4  6  1  0
  6  7  2  0
  6  9  1  0
  7  8  1  0
  7 29  1  0
  8 30  1  0
  9 10  1  0
 10 11  2  0
 10 12  1  0
 11 17  1  0
 11 31  1  0
 12 13  2  0
 12 14  1  0
 14 15  1  0
 14 16  1  0
 15 32  1  0
 15 33  1  0
 15 34  1  0
 16 17  2  0
 16 18  1  0
 17 21  1  0
 18 19  2  0
 19 20  1  0
 19 22  1  0
 20 21  2  0
 21 35  1  0
 22 23  1  0
 22 36  1  0
 23 24  1  0
 23 25  1  0
 23 26  1  0
 24 37  1  0
 24 38  1  0
 24 39  1  0
 25 40  1  0
 25 41  1  0
 25 42  1  0
 26 27  1  0
 26 43  1  0
 26 44  1  0
 27 45  1  0
M  END
>  <s_m_entry_id>  (1) 
284

>  <i_f3d_flags>  (1) 
0

>  <r_lp_tautomer_probability>  (1) 
1

>  <r_epik_Ionization_Penalty>  (1) 
  0.0000

>  <r_epik_State_Penalty>  (1) 
  0.0000

>  <i_epik_Tot_Q>  (1) 
0

>  <s_m_job_name>  (1) 
glide-dock_SP_p38_core_cons_top_1

>  <r_i_docking_score>  (1) 
-6.1596340430015

>  <r_i_glide_gscore>  (1) 
-6.1596340430015

>  <r_i_glide_emodel>  (1) 
-42.9877497258487

>  <index_string>  (1) 
4:0:0

$$$$
