16:0:0
     RDKit          3D

 48 50  0  0  1  0  0  0  0  0999 V2000
   39.4738   17.8861   12.7373 O   0  0  0  0  0  0  0  0  0  0  0  0
   40.5881   17.3140   12.6920 C   0  0  0  0  0  0  0  0  0  0  0  0
   41.4310   17.4862   11.7784 O   0  0  0  0  0  0  0  0  0  0  0  0
   40.9112   16.3409   13.8375 C   0  0  0  0  0  0  0  0  0  0  0  0
   42.1792   15.7114   13.6711 O   0  0  0  0  0  0  0  0  0  0  0  0
   42.5357   14.9154   14.7083 C   0  0  0  0  0  0  0  0  0  0  0  0
   42.1432   13.5658   14.8872 C   0  0  0  0  0  0  0  0  0  0  0  0
   40.9828   12.7084   13.6923 Br  0  0  0  0  0  0  0  0  0  0  0  0
   42.6064   12.9287   16.0016 C   0  0  0  0  0  0  0  0  0  0  0  0
   43.6199   14.0062   16.8971 S   0  0  0  0  0  0  0  0  0  0  0  0
   43.3253   15.3077   15.7517 C   0  0  0  0  0  0  0  0  0  0  0  0
   43.9279   16.5910   16.0761 C   0  0  0  0  0  0  0  0  0  0  0  0
   44.5828   16.6862   17.1319 O   0  0  0  0  0  0  0  0  0  0  0  0
   43.7838   17.5529   15.2921 O   0  0  0  0  0  0  0  0  0  0  0  0
   42.3498   11.5749   16.4842 C   0  0  0  0  0  0  0  0  0  0  0  0
   43.3960   10.7846   16.9938 C   0  0  0  0  0  0  0  0  0  0  0  0
   43.1564    9.4705   17.4297 C   0  0  0  0  0  0  0  0  0  0  0  0
   41.8638    8.9210   17.3452 C   0  0  0  0  0  0  0  0  0  0  0  0
   40.7967    9.6958   16.8317 C   0  0  0  0  0  0  0  0  0  0  0  0
   41.0538   11.0196   16.4270 C   0  0  0  0  0  0  0  0  0  0  0  0
   39.4728    9.2399   16.7273 N   0  0  0  0  0  0  0  0  0  0  0  0
   39.1565    7.8176   16.7071 C   0  0  0  0  0  0  0  0  0  0  0  0
   38.9998    7.2671   15.2781 C   0  0  0  0  0  0  0  0  0  0  0  0
   40.2570    7.4926   14.4083 C   0  0  0  0  0  0  0  0  0  0  0  0
   40.1008    6.8766   13.0122 C   0  0  0  0  0  0  0  0  0  0  0  0
   39.7491    5.3868   13.0903 C   0  0  0  0  0  0  0  0  0  0  0  0
   38.4839    5.1642   13.9247 C   0  0  0  0  0  0  0  0  0  0  0  0
   38.6437    5.7674   15.3282 C   0  0  0  0  0  0  0  0  0  0  0  0
   40.8687   16.8835   14.7875 H   0  0  0  0  0  0  0  0  0  0  0  0
   40.1367   15.5713   13.8639 H   0  0  0  0  0  0  0  0  0  0  0  0
   44.3955   11.1860   17.0429 H   0  0  0  0  0  0  0  0  0  0  0  0
   43.9702    8.8809   17.8226 H   0  0  0  0  0  0  0  0  0  0  0  0
   41.7243    7.9094   17.6916 H   0  0  0  0  0  0  0  0  0  0  0  0
   40.2337   11.6207   16.0646 H   0  0  0  0  0  0  0  0  0  0  0  0
   38.8700    9.8155   16.1575 H   0  0  0  0  0  0  0  0  0  0  0  0
   39.8732    7.2185   17.2618 H   0  0  0  0  0  0  0  0  0  0  0  0
   38.2126    7.6961   17.2387 H   0  0  0  0  0  0  0  0  0  0  0  0
   38.1677    7.7918   14.8075 H   0  0  0  0  0  0  0  0  0  0  0  0
   40.4472    8.5593   14.2912 H   0  0  0  0  0  0  0  0  0  0  0  0
   41.1360    7.0846   14.9067 H   0  0  0  0  0  0  0  0  0  0  0  0
   39.3091    7.4125   12.4939 H   0  0  0  0  0  0  0  0  0  0  0  0
   41.0108    7.0141   12.4289 H   0  0  0  0  0  0  0  0  0  0  0  0
   39.6076    4.9792   12.0921 H   0  0  0  0  0  0  0  0  0  0  0  0
   40.5790    4.8350   13.5302 H   0  0  0  0  0  0  0  0  0  0  0  0
   37.6281    5.6183   13.4248 H   0  0  0  0  0  0  0  0  0  0  0  0
   38.2738    4.0966   13.9929 H   0  0  0  0  0  0  0  0  0  0  0  0
   39.4228    5.2254   15.8669 H   0  0  0  0  0  0  0  0  0  0  0  0
   37.7190    5.6257   15.8898 H   0  0  0  0  0  0  0  0  0  0  0  0
  1  2  2  0
  2  3  1  0
  2  4  1  0
  4  5  1  0
  4 29  1  0
  4 30  1  0
  5  6  1  0
  6 11  2  0
  6  7  1  0
  7  8  1  0
  7  9  2  0
  9 10  1  0
  9 15  1  0
 10 11  1  0
 11 12  1  0
 12 13  2  0
 12 14  1  0
 15 20  1  0
 15 16  2  0
 16 17  1  0
 16 31  1  0
 17 18  2  0
 17 32  1  0
 18 19  1  0
 18 33  1  0
 19 20  2  0
 19 21  1  0
 20 34  1  0
 21 22  1  0
 21 35  1  0
 22 23  1  0
 22 36  1  0
 22 37  1  0
 23 28  1  0
 23 24  1  0
 23 38  1  0
 24 25  1  0
 24 39  1  0
 24 40  1  0
 25 26  1  0
 25 41  1  0
 25 42  1  0
 26 27  1  0
 26 43  1  0
 26 44  1  0
 27 28  1  0
 27 45  1  0
 27 46  1  0
 28 47  1  0
 28 48  1  0
M  CHG  2   3  -1  14  -1
M  END
>  <s_m_entry_id>  (1) 
491

>  <i_f3d_flags>  (1) 
0

>  <r_epik_Ionization_Penalty>  (1) 
  0.0033

>  <r_epik_State_Penalty>  (1) 
  0.0023

>  <i_epik_Tot_Q>  (1) 
-2

>  <s_m_job_name>  (1) 
glide-dock_SP_ptp1b_core_cons

>  <r_i_docking_score>  (1) 
-7.19997538339451

>  <r_i_glide_gscore>  (1) 
-7.20227538339451

>  <r_i_glide_emodel>  (1) 
-94.2822860057291

>  <index_string>  (1) 
16:0:0

$$$$
