26:0:0
     RDKit          3D

 61 65  0  0  1  0  0  0  0  0999 V2000
    5.8300   -0.5020   16.3440 C   0  0  0  0  0  0  0  0  0  0  0  0
    4.5530   -0.9500   16.2450 N   0  0  0  0  0  0  0  0  0  0  0  0
    4.0470   -0.2390   15.2240 C   0  0  0  0  0  0  0  0  0  0  0  0
    2.7550   -0.3180   14.7100 C   0  0  0  0  0  0  0  0  0  0  0  0
    1.8000   -1.2280   15.2720 N   0  0  0  0  0  0  0  0  0  0  0  0
    2.4410    0.4980   13.6610 N   0  0  0  0  0  0  0  0  0  0  0  0
    3.3450    1.3720   13.1150 C   0  0  0  0  0  0  0  0  0  0  0  0
    4.6450    1.4310   13.6530 C   0  0  0  0  0  0  0  0  0  0  0  0
    4.9310    0.6120   14.6930 N   0  0  0  0  0  0  0  0  0  0  0  0
    6.0730    0.4720   15.3780 C   0  0  0  0  0  0  0  0  0  0  0  0
    0.4400   -1.4200   14.8530 C   0  0  0  0  0  0  0  0  0  0  0  0
   -0.2910   -2.5620   15.2030 C   0  0  0  0  0  0  0  0  0  0  0  0
   -1.6120   -2.7120   14.7770 C   0  0  0  0  0  0  0  0  0  0  0  0
   -2.2230   -1.7210   13.9920 C   0  0  0  0  0  0  0  0  0  0  0  0
   -1.4960   -0.5750   13.6380 C   0  0  0  0  0  0  0  0  0  0  0  0
   -0.1670   -0.4330   14.0720 C   0  0  0  0  0  0  0  0  0  0  0  0
   -3.5460   -1.8550   13.5560 O   0  0  0  0  0  0  0  0  0  0  0  0
   -4.0350   -3.0340   12.9300 C   0  0  0  0  0  0  0  0  0  0  0  0
   -2.1120    0.4100   12.8560 O   0  0  0  0  0  0  0  0  0  0  0  0
   -1.5520    0.8870   11.6400 C   0  0  0  0  0  0  0  0  0  0  0  0
    2.9470    2.2290   11.9800 C   0  0  0  0  0  0  0  0  0  0  0  0
    3.8360    2.4990   10.9290 C   0  0  0  0  0  0  0  0  0  0  0  0
    3.4460    3.3130    9.8620 C   0  0  0  0  0  0  0  0  0  0  0  0
    2.1620    3.8630    9.8370 C   0  0  0  0  0  0  0  0  0  0  0  0
    1.2600    3.6060   10.8780 C   0  0  0  0  0  0  0  0  0  0  0  0
    1.6600    2.7890   11.9430 C   0  0  0  0  0  0  0  0  0  0  0  0
   -0.0940    4.1850   10.8540 C   0  0  0  0  0  0  0  0  0  0  0  0
   -0.5180    4.7410    9.8040 O   0  0  0  0  0  0  0  0  0  0  0  0
   -0.9200    4.1120   12.0270 N   0  0  0  0  0  0  0  0  0  0  0  0
   -2.2530    4.6210   12.1730 C   0  0  0  0  0  0  0  0  0  0  0  0
   -2.5230    5.8130   12.8600 C   0  0  0  0  0  0  0  0  0  0  0  0
   -3.8360    6.2770   12.9810 C   0  0  0  0  0  0  0  0  0  0  0  0
   -4.8960    5.5530   12.4170 C   0  0  0  0  0  0  0  0  0  0  0  0
   -4.6260    4.3620   11.7320 C   0  0  0  0  0  0  0  0  0  0  0  0
   -3.3130    3.9000   11.6110 C   0  0  0  0  0  0  0  0  0  0  0  0
   -6.2820    6.0360   12.5430 C   0  0  0  0  0  0  0  0  0  0  0  0
   -6.6840    6.5500   13.6200 O   0  0  0  0  0  0  0  0  0  0  0  0
   -7.1600    5.9300   11.4700 O   0  0  0  0  0  0  0  0  0  0  0  0
    6.5665   -0.8564   17.0802 H   0  0  0  0  0  0  0  0  0  0  0  0
    2.1242   -1.8058   16.0606 H   0  0  0  0  0  0  0  0  0  0  0  0
    5.4008    2.1174   13.2434 H   0  0  0  0  0  0  0  0  0  0  0  0
    7.0141    1.0167   15.2114 H   0  0  0  0  0  0  0  0  0  0  0  0
    0.1781   -3.3450   15.8168 H   0  0  0  0  0  0  0  0  0  0  0  0
   -2.1779   -3.6124   15.0581 H   0  0  0  0  0  0  0  0  0  0  0  0
    0.4024    0.4660   13.7935 H   0  0  0  0  0  0  0  0  0  0  0  0
   -4.3361   -3.7599   13.6997 H   0  0  0  0  0  0  0  0  0  0  0  0
   -4.9033   -2.7831   12.3030 H   0  0  0  0  0  0  0  0  0  0  0  0
   -3.2440   -3.4713   12.3030 H   0  0  0  0  0  0  0  0  0  0  0  0
   -0.7320    1.5855   11.8631 H   0  0  0  0  0  0  0  0  0  0  0  0
   -1.1629    0.0386   11.0579 H   0  0  0  0  0  0  0  0  0  0  0  0
   -2.3277    1.4061   11.0579 H   0  0  0  0  0  0  0  0  0  0  0  0
    4.8474    2.0669   10.9448 H   0  0  0  0  0  0  0  0  0  0  0  0
    4.1496    3.5205    9.0423 H   0  0  0  0  0  0  0  0  0  0  0  0
    1.8573    4.5017    8.9949 H   0  0  0  0  0  0  0  0  0  0  0  0
    0.9556    2.5831   12.7624 H   0  0  0  0  0  0  0  0  0  0  0  0
   -0.5122    3.6451   12.8496 H   0  0  0  0  0  0  0  0  0  0  0  0
   -1.6970    6.3862   13.3062 H   0  0  0  0  0  0  0  0  0  0  0  0
   -4.0384    7.2138   13.5208 H   0  0  0  0  0  0  0  0  0  0  0  0
   -5.4516    3.7873   11.2870 H   0  0  0  0  0  0  0  0  0  0  0  0
   -3.1109    2.9635   11.0705 H   0  0  0  0  0  0  0  0  0  0  0  0
   -7.6169    6.8722   13.6968 H   0  0  0  0  0  0  0  0  0  0  0  0
  1  2  1  0
  1 10  2  0
  2  3  2  0
  3  4  1  0
  3  9  1  0
  4  5  1  0
  4  6  2  0
  5 11  1  0
  6  7  1  0
  7  8  2  0
  7 21  1  0
  8  9  1  0
  9 10  1  0
 11 12  2  0
 11 16  1  0
 12 13  1  0
 13 14  2  0
 14 15  1  0
 14 17  1  0
 15 16  2  0
 15 19  1  0
 17 18  1  0
 19 20  1  0
 21 22  2  0
 21 26  1  0
 22 23  1  0
 23 24  2  0
 24 25  1  0
 25 26  2  0
 25 27  1  0
 27 29  1  0
 27 28  2  0
 29 30  1  0
 30 31  2  0
 30 35  1  0
 31 32  1  0
 32 33  2  0
 33 36  1  0
 33 34  1  0
 34 35  2  0
 36 37  1  0
 36 38  2  0
  1 39  1  0
  5 40  1  0
  8 41  1  0
 10 42  1  0
 12 43  1  0
 13 44  1  0
 16 45  1  0
 18 46  1  0
 18 47  1  0
 18 48  1  0
 20 49  1  0
 20 50  1  0
 20 51  1  0
 22 52  1  0
 23 53  1  0
 24 54  1  0
 26 55  1  0
 29 56  1  0
 31 57  1  0
 32 58  1  0
 34 59  1  0
 35 60  1  0
 37 61  1  0
M  END
>  <s_m_entry_id>  (1) 
27

>  <MODEL>  (1) 
1

>  <REMARK>  (1) 
 VINA RESULT:   -10.770      0.000      0.000
 INTER + INTRA:         -16.026
 INTER:                 -15.177
 INTRA:                  -0.849
 UNBOUND:                -0.849
  Name = /scratch/kmzp800/tmp2zaifds5/tmp0leck6_f.pdb
  9 active torsions:
  status: ('A' for Active; 'I' for Inactive)
    1  A    between atoms: N2_5  and  C4_6
    2  A    between atoms: C7_9  and  O1_10
    3  A    between atoms: O1_10  and  C8_11
    4  A    between atoms: C9_12  and  O2_13
    5  A    between atoms: O2_13  and  C10_14
    6  A    between atoms: C12_17  and  C13_18
    7  A    between atoms: C17_22  and  C18_23
    8  A    between atoms: N4_25  and  C19_26
    9  A    between atoms: C22_29  and  C23_30
                            x       y       z     vdW  Elec       q    Type
                         _______ _______ _______ _____ _____    ______ ____

>  <TORSDO>  (1) 
F 7

>  <grid_id>  (1) 
syk-prepared

>  <grid_path>  (1) 
syk_vina.pdbqt

>  <grid_filename>  (1) 
syk_vina.pdbqt

>  <docking_score>  (1) 
-10.77

>  <compound_name>  (1) 
CHEMBL3264995

>  <index_string>  (1) 
26:0:0

>  <s_m_Source_Path>  (1) 
/projects/mai/users/kmzp800_harry/pmx_colab/docking_jobs/syk/vina_prep/output

>  <s_m_Source_File>  (1) 
ptp1b_docked_conformers.sdf

>  <i_m_Source_File_Index>  (1) 
27

$$$$
