6:0:0
     RDKit          3D

 48 51  0  0  1  0  0  0  0  0999 V2000
   33.8350   35.9930   20.0630 C   0  0  0  0  0  0  0  0  0  0  0  0
   33.8540   37.3770   20.2310 C   0  0  0  0  0  0  0  0  0  0  0  0
   33.8330   37.9200   21.5090 C   0  0  0  0  0  0  0  0  0  0  0  0
   33.8610   39.2970   21.7080 C   0  0  0  0  0  0  0  0  0  0  0  0
   33.8440   39.7970   22.9710 N   0  0  0  0  0  0  0  0  0  0  0  0
   33.8020   38.9740   24.0520 C   0  0  0  0  0  0  0  0  0  0  0  0
   33.7830   39.5410   25.3660 N   0  0  0  0  0  0  0  0  0  0  0  0
   33.7710   37.6240   23.8750 N   0  0  0  0  0  0  0  0  0  0  0  0
   33.7850   37.0740   22.6290 C   0  0  0  0  0  0  0  0  0  0  0  0
   33.7450   35.7160   22.4590 N   0  0  0  0  0  0  0  0  0  0  0  0
   33.6760   34.8430   23.6270 C   0  0  0  0  0  0  0  0  0  0  0  0
   33.7560   35.1640   21.2030 C   0  0  0  0  0  0  0  0  0  0  0  0
   33.6720   33.9130   21.0630 O   0  0  0  0  0  0  0  0  0  0  0  0
   33.7770   38.7720   26.6070 C   0  0  0  0  0  0  0  0  0  0  0  0
   32.4420   38.0230   26.7930 C   0  0  0  0  0  0  0  0  0  0  0  0
   31.5110   38.6630   27.8190 C   0  0  0  0  0  0  0  0  0  0  0  0
   32.3160   38.6810   29.4080 S   0  0  0  0  0  6  0  0  0  0  0  0
   32.0880   37.3750   30.1140 O   0  0  0  0  0  0  0  0  0  0  0  0
   31.7740   39.8080   30.2400 O   0  0  0  0  0  0  0  0  0  0  0  0
   34.0570   38.9160   29.1230 C   0  0  0  0  0  0  0  0  0  0  0  0
   34.2460   39.6300   27.7930 C   0  0  0  0  0  0  0  0  0  0  0  0
   33.8530   35.4810   18.7580 O   0  0  0  0  0  0  0  0  0  0  0  0
   37.3100   35.9000   17.5300 C   0  0  0  0  0  0  0  0  0  0  0  0
   36.2060   35.8020   18.3810 C   0  0  0  0  0  0  0  0  0  0  0  0
   34.9260   35.5820   17.8610 C   0  0  0  0  0  0  0  0  0  0  0  0
   34.7630   35.4290   16.4680 C   0  0  0  0  0  0  0  0  0  0  0  0
   33.5520   35.1440   15.9300 F   0  0  0  0  0  0  0  0  0  0  0  0
   35.8720   35.5270   15.6210 C   0  0  0  0  0  0  0  0  0  0  0  0
   37.1410   35.7700   16.1490 C   0  0  0  0  0  0  0  0  0  0  0  0
   38.2110   35.8660   15.3240 F   0  0  0  0  0  0  0  0  0  0  0  0
   33.8856   38.0380   19.3523 H   0  0  0  0  0  0  0  0  0  0  0  0
   33.8968   39.9785   20.8453 H   0  0  0  0  0  0  0  0  0  0  0  0
   33.7728   40.5682   25.4418 H   0  0  0  0  0  0  0  0  0  0  0  0
   33.7240   35.4509   24.5425 H   0  0  0  0  0  0  0  0  0  0  0  0
   32.7306   34.2809   23.6093 H   0  0  0  0  0  0  0  0  0  0  0  0
   34.5213   34.1394   23.6093 H   0  0  0  0  0  0  0  0  0  0  0  0
   34.5246   37.9671   26.5503 H   0  0  0  0  0  0  0  0  0  0  0  0
   31.9225   37.9954   25.8238 H   0  0  0  0  0  0  0  0  0  0  0  0
   32.6890   37.0191   27.1688 H   0  0  0  0  0  0  0  0  0  0  0  0
   31.2784   39.6935   27.5126 H   0  0  0  0  0  0  0  0  0  0  0  0
   30.5779   38.0841   27.8836 H   0  0  0  0  0  0  0  0  0  0  0  0
   34.4850   39.5247   29.9331 H   0  0  0  0  0  0  0  0  0  0  0  0
   34.5658   37.9411   29.0985 H   0  0  0  0  0  0  0  0  0  0  0  0
   35.3133   39.8623   27.6632 H   0  0  0  0  0  0  0  0  0  0  0  0
   33.6385   40.5468   27.8103 H   0  0  0  0  0  0  0  0  0  0  0  0
   38.3119   36.0794   17.9471 H   0  0  0  0  0  0  0  0  0  0  0  0
   36.3444   35.8986   19.4680 H   0  0  0  0  0  0  0  0  0  0  0  0
   35.7435   35.4121   14.5346 H   0  0  0  0  0  0  0  0  0  0  0  0
  1  2  2  0
  1 12  1  0
  1 22  1  0
  2  3  1  0
  3  4  2  0
  3  9  1  0
  4  5  1  0
  5  6  2  0
  6  7  1  0
  6  8  1  0
  7 14  1  0
  8  9  2  0
  9 10  1  0
 10 11  1  0
 10 12  1  0
 12 13  2  0
 14 15  1  0
 14 21  1  0
 15 16  1  0
 16 17  1  0
 17 18  2  0
 17 19  2  0
 17 20  1  0
 20 21  1  0
 22 25  1  0
 23 24  2  0
 23 29  1  0
 24 25  1  0
 25 26  2  0
 26 27  1  0
 26 28  1  0
 28 29  2  0
 29 30  1  0
  2 31  1  0
  4 32  1  0
  7 33  1  0
 11 34  1  0
 11 35  1  0
 11 36  1  0
 14 37  1  0
 15 38  1  0
 15 39  1  0
 16 40  1  0
 16 41  1  0
 20 42  1  0
 20 43  1  0
 21 44  1  0
 21 45  1  0
 23 46  1  0
 24 47  1  0
 28 48  1  0
M  END
>  <s_m_entry_id>  (1) 
55

>  <MODEL>  (1) 
2

>  <REMARK>  (1) 
 VINA RESULT:   -11.188      1.316      1.872
 INTER + INTRA:         -10.312
 INTER:                  -9.912
 INTRA:                  -0.400
 UNBOUND:                 2.839
  Name = /scratch/kmzp800/tmp7m54wnta/tmp6k0hay_u.pdb
  4 active torsions:
  status: ('A' for Active; 'I' for Inactive)
    1  A    between atoms: C3_3  and  O1_4
    2  A    between atoms: O1_4  and  C4_5
    3  A    between atoms: N2_11  and  C9_12
    4  A    between atoms: N4_22  and  C15_23
                            x       y       z     vdW  Elec       q    Type
                         _______ _______ _______ _____ _____    ______ ____

>  <TORSDO>  (1) 
F 3

>  <grid_id>  (1) 
p38-prepared

>  <grid_path>  (1) 
/projects/mai/users/kmzp800_harry/pmx_colab/docking_jobs/p38/vina_docking/input_files/p38_vina.pdbqt

>  <grid_filename>  (1) 
p38_vina.pdbqt

>  <docking_score>  (1) 
-11.188

>  <compound_name>  (1) 
lig_p38a_2gg

>  <index_string>  (1) 
6:0:0

$$$$
