37:0:0
     RDKit          3D

 51 55  0  0  1  0  0  0  0  0999 V2000
    5.5330   -0.6150   16.2640 C   0  0  0  0  0  0  0  0  0  0  0  0
    4.2520   -1.0490   16.1390 N   0  0  0  0  0  0  0  0  0  0  0  0
    3.7590   -0.2960   15.1410 C   0  0  0  0  0  0  0  0  0  0  0  0
    2.4700   -0.3460   14.6170 C   0  0  0  0  0  0  0  0  0  0  0  0
    1.5100   -1.2720   15.1450 N   0  0  0  0  0  0  0  0  0  0  0  0
    2.1660    0.5100   13.5960 N   0  0  0  0  0  0  0  0  0  0  0  0
    3.0830    1.3960   13.0900 C   0  0  0  0  0  0  0  0  0  0  0  0
    4.3790    1.4250   13.6400 C   0  0  0  0  0  0  0  0  0  0  0  0
    4.6520    0.5670   14.6490 N   0  0  0  0  0  0  0  0  0  0  0  0
    5.7890    0.3920   15.3370 C   0  0  0  0  0  0  0  0  0  0  0  0
    2.7080    2.3020   11.9850 C   0  0  0  0  0  0  0  0  0  0  0  0
    3.6670    2.6920   11.0370 C   0  0  0  0  0  0  0  0  0  0  0  0
    3.3270    3.5550    9.9910 C   0  0  0  0  0  0  0  0  0  0  0  0
    2.0210    4.0360    9.8840 C   0  0  0  0  0  0  0  0  0  0  0  0
    1.0490    3.6320   10.8090 C   0  0  0  0  0  0  0  0  0  0  0  0
    1.3910    2.7790   11.8600 C   0  0  0  0  0  0  0  0  0  0  0  0
   -0.2930    4.0990   10.6510 N   0  0  0  0  0  0  0  0  0  0  0  0
   -0.6960    4.7600    9.4120 C   0  0  0  0  0  0  0  0  0  0  0  0
    0.4390    5.6510    8.9040 C   0  0  0  0  0  0  0  0  0  0  0  0
    1.6680    4.9200    8.8590 O   0  0  0  0  0  0  0  0  0  0  0  0
    0.1510   -1.4570   14.7260 C   0  0  0  0  0  0  0  0  0  0  0  0
   -0.4880   -2.6570   15.0450 C   0  0  0  0  0  0  0  0  0  0  0  0
   -1.8100   -2.8790   14.6570 C   0  0  0  0  0  0  0  0  0  0  0  0
   -2.5150   -1.9010   13.9400 C   0  0  0  0  0  0  0  0  0  0  0  0
   -1.8820   -0.6910   13.6140 C   0  0  0  0  0  0  0  0  0  0  0  0
   -0.5510   -0.4760   14.0090 C   0  0  0  0  0  0  0  0  0  0  0  0
   -3.8410   -2.1060   13.5430 O   0  0  0  0  0  0  0  0  0  0  0  0
   -4.2450   -3.2230   12.7600 C   0  0  0  0  0  0  0  0  0  0  0  0
   -2.5950    0.2780   12.8990 O   0  0  0  0  0  0  0  0  0  0  0  0
   -1.9600    1.3120   12.1610 C   0  0  0  0  0  0  0  0  0  0  0  0
    6.2617   -1.0024   16.9913 H   0  0  0  0  0  0  0  0  0  0  0  0
    1.8347   -1.8743   15.9149 H   0  0  0  0  0  0  0  0  0  0  0  0
    5.1424    2.1210   13.2622 H   0  0  0  0  0  0  0  0  0  0  0  0
    6.7352    0.9353   15.1972 H   0  0  0  0  0  0  0  0  0  0  0  0
    4.6970    2.3145   11.1180 H   0  0  0  0  0  0  0  0  0  0  0  0
    4.0868    3.8543    9.2541 H   0  0  0  0  0  0  0  0  0  0  0  0
    0.6276    2.4790   12.5929 H   0  0  0  0  0  0  0  0  0  0  0  0
   -0.9760    3.9694   11.4110 H   0  0  0  0  0  0  0  0  0  0  0  0
   -0.9305    3.9996    8.6526 H   0  0  0  0  0  0  0  0  0  0  0  0
   -1.5842    5.3796    9.6046 H   0  0  0  0  0  0  0  0  0  0  0  0
    0.1935    6.0090    7.8933 H   0  0  0  0  0  0  0  0  0  0  0  0
    0.5567    6.5029    9.5898 H   0  0  0  0  0  0  0  0  0  0  0  0
    0.0543   -3.4325   15.6059 H   0  0  0  0  0  0  0  0  0  0  0  0
   -2.3028   -3.8279   14.9153 H   0  0  0  0  0  0  0  0  0  0  0  0
   -0.0539    0.4714   13.7535 H   0  0  0  0  0  0  0  0  0  0  0  0
   -4.5433   -4.0476   13.4241 H   0  0  0  0  0  0  0  0  0  0  0  0
   -5.0967   -2.9370   12.1253 H   0  0  0  0  0  0  0  0  0  0  0  0
   -3.4075   -3.5480   12.1253 H   0  0  0  0  0  0  0  0  0  0  0  0
   -1.5140    2.0382   12.8565 H   0  0  0  0  0  0  0  0  0  0  0  0
   -1.1717    0.8793   11.5274 H   0  0  0  0  0  0  0  0  0  0  0  0
   -2.7024    1.8194   11.5274 H   0  0  0  0  0  0  0  0  0  0  0  0
  1  2  1  0
  1 10  2  0
  2  3  2  0
  3  4  1  0
  3  9  1  0
  4  5  1  0
  4  6  2  0
  5 21  1  0
  6  7  1  0
  7  8  2  0
  7 11  1  0
  8  9  1  0
  9 10  1  0
 11 12  2  0
 11 16  1  0
 12 13  1  0
 13 14  2  0
 14 15  1  0
 14 20  1  0
 15 16  2  0
 15 17  1  0
 17 18  1  0
 18 19  1  0
 19 20  1  0
 21 22  2  0
 21 26  1  0
 22 23  1  0
 23 24  2  0
 24 25  1  0
 24 27  1  0
 25 26  2  0
 25 29  1  0
 27 28  1  0
 29 30  1  0
  1 31  1  0
  5 32  1  0
  8 33  1  0
 10 34  1  0
 12 35  1  0
 13 36  1  0
 16 37  1  0
 17 38  1  0
 18 39  1  0
 18 40  1  0
 19 41  1  0
 19 42  1  0
 22 43  1  0
 23 44  1  0
 26 45  1  0
 28 46  1  0
 28 47  1  0
 28 48  1  0
 30 49  1  0
 30 50  1  0
 30 51  1  0
M  END
>  <s_m_entry_id>  (1) 
38

>  <MODEL>  (1) 
1

>  <REMARK>  (1) 
 VINA RESULT:    -9.594      0.000      0.000
 INTER + INTRA:         -12.294
 INTER:                 -11.837
 INTRA:                  -0.457
 UNBOUND:                -0.457
  Name = /scratch/kmzp800/tmpge1m4r22/tmp28q1d0hu.pdb
  6 active torsions:
  status: ('A' for Active; 'I' for Inactive)
    1  A    between atoms: N2_5  and  C4_6
    2  A    between atoms: C7_9  and  O1_10
    3  A    between atoms: O1_10  and  C8_11
    4  A    between atoms: C9_12  and  O2_13
    5  A    between atoms: O2_13  and  C10_14
    6  A    between atoms: C12_17  and  C13_18
                            x       y       z     vdW  Elec       q    Type
                         _______ _______ _______ _____ _____    ______ ____

>  <TORSDO>  (1) 
F 4

>  <grid_id>  (1) 
syk-prepared

>  <grid_path>  (1) 
syk_vina.pdbqt

>  <grid_filename>  (1) 
syk_vina.pdbqt

>  <docking_score>  (1) 
-9.594

>  <compound_name>  (1) 
CHEMBL3265026

>  <index_string>  (1) 
37:0:0

>  <s_m_Source_Path>  (1) 
/projects/mai/users/kmzp800_harry/pmx_colab/docking_jobs/syk/vina_prep/output

>  <s_m_Source_File>  (1) 
ptp1b_docked_conformers.sdf

>  <i_m_Source_File_Index>  (1) 
38

$$$$
