35:0:0
     RDKit          3D

 67 71  0  0  1  0  0  0  0  0999 V2000
   -4.4703   -3.4409   14.2445 C   0  0  0  0  0  0  0  0  0  0  0  0
   -3.8750   -2.1816   13.9800 O   0  0  0  0  0  0  0  0  0  0  0  0
   -2.5361   -2.0247   14.2759 C   0  0  0  0  0  0  0  0  0  0  0  0
   -1.7528   -2.9967   14.9493 C   0  0  0  0  0  0  0  0  0  0  0  0
   -0.3978   -2.7488   15.2443 C   0  0  0  0  0  0  0  0  0  0  0  0
    0.2102   -1.5335   14.8719 C   0  0  0  0  0  0  0  0  0  0  0  0
    1.5554   -1.3253   15.2419 N   0  0  0  0  0  0  0  0  0  0  0  0
    2.5199   -0.4341   14.7297 C   0  0  0  0  0  0  0  0  0  0  0  0
    2.2010    0.3815   13.7594 N   0  0  0  0  0  0  0  0  0  0  0  0
    3.1219    1.2709   13.2503 C   0  0  0  0  0  0  0  0  0  0  0  0
    4.4271    1.2871   13.6826 C   0  0  0  0  0  0  0  0  0  0  0  0
    4.7548    0.4790   14.7242 N   0  0  0  0  0  0  0  0  0  0  0  0
    5.9083    0.3692   15.4757 C   0  0  0  0  0  0  0  0  0  0  0  0
    5.5939   -0.4935   16.4999 C   0  0  0  0  0  0  0  0  0  0  0  0
    4.3535   -1.0572   16.3283 N   0  0  0  0  0  0  0  0  0  0  0  0
    3.8236   -0.4179   15.2906 C   0  0  0  0  0  0  0  0  0  0  0  0
    2.6192    2.2412   12.2450 C   0  0  0  0  0  0  0  0  0  0  0  0
    3.4882    2.8041   11.2767 C   0  0  0  0  0  0  0  0  0  0  0  0
    3.0078    3.6876   10.2911 C   0  0  0  0  0  0  0  0  0  0  0  0
    1.6425    4.0136   10.2448 C   0  0  0  0  0  0  0  0  0  0  0  0
    0.7569    3.4865   11.2060 C   0  0  0  0  0  0  0  0  0  0  0  0
    1.2572    2.6328   12.2174 C   0  0  0  0  0  0  0  0  0  0  0  0
   -0.7139    3.7278   11.0754 C   0  0  0  0  0  0  0  0  0  0  0  0
   -1.3088    3.2613   10.1040 O   0  0  0  0  0  0  0  0  0  0  0  0
   -1.2690    4.4086   12.0964 N   0  0  0  0  0  0  0  0  0  0  0  0
   -2.6091    4.8747   12.2453 C   0  0  0  0  0  0  0  0  0  0  0  0
   -2.9063    5.6040   13.4143 C   0  0  0  0  0  0  0  0  0  0  0  0
   -4.1814    6.1736   13.6043 C   0  0  0  0  0  0  0  0  0  0  0  0
   -5.1873    6.0326   12.6235 C   0  0  0  0  0  0  0  0  0  0  0  0
   -4.9125    5.2558   11.4788 C   0  0  0  0  0  0  0  0  0  0  0  0
   -3.6406    4.6830   11.2908 C   0  0  0  0  0  0  0  0  0  0  0  0
   -6.5539    6.6333   12.7948 C   0  0  0  0  0  0  0  0  0  0  0  0
   -7.5089    6.0122   12.3278 O   0  0  0  0  0  0  0  0  0  0  0  0
   -6.5668    7.8575   13.3853 N   0  0  0  0  0  0  0  0  0  0  0  0
   -7.9368    8.7263   13.4808 S   0  0  0  0  0  0  0  0  0  0  0  0
   -8.6823    8.8286   12.2175 O   0  0  0  0  0  0  0  0  0  0  0  0
   -7.7346    9.9846   14.2116 O   0  0  0  0  0  0  0  0  0  0  0  0
   -8.9329    7.6868   14.6039 C   0  0  0  0  0  0  0  0  0  0  0  0
   -0.5772   -0.5768   14.1860 C   0  0  0  0  0  0  0  0  0  0  0  0
   -1.9426   -0.8053   13.8905 C   0  0  0  0  0  0  0  0  0  0  0  0
   -2.7560    0.1144   13.2600 O   0  0  0  0  0  0  0  0  0  0  0  0
   -2.1530    1.2779   12.7220 C   0  0  0  0  0  0  0  0  0  0  0  0
   -5.5059   -3.4216   13.9033 H   0  0  0  0  0  0  0  0  0  0  0  0
   -3.9598   -4.2401   13.7040 H   0  0  0  0  0  0  0  0  0  0  0  0
   -4.4748   -3.6692   15.3117 H   0  0  0  0  0  0  0  0  0  0  0  0
   -2.1757   -3.9341   15.2763 H   0  0  0  0  0  0  0  0  0  0  0  0
    0.1726   -3.5056   15.7639 H   0  0  0  0  0  0  0  0  0  0  0  0
    1.9236   -1.9721   15.9284 H   0  0  0  0  0  0  0  0  0  0  0  0
    5.1928    1.9731   13.3413 H   0  0  0  0  0  0  0  0  0  0  0  0
    6.7802    0.9750   15.2591 H   0  0  0  0  0  0  0  0  0  0  0  0
    6.1107   -0.7659   17.3913 H   0  0  0  0  0  0  0  0  0  0  0  0
    4.5340    2.5337   11.2513 H   0  0  0  0  0  0  0  0  0  0  0  0
    3.6790    4.0888    9.5478 H   0  0  0  0  0  0  0  0  0  0  0  0
    1.2698    4.6546    9.4591 H   0  0  0  0  0  0  0  0  0  0  0  0
    0.5780    2.2296   12.9490 H   0  0  0  0  0  0  0  0  0  0  0  0
   -0.6275    4.6972   12.8233 H   0  0  0  0  0  0  0  0  0  0  0  0
   -2.1465    5.7601   14.1669 H   0  0  0  0  0  0  0  0  0  0  0  0
   -4.3701    6.7491   14.4966 H   0  0  0  0  0  0  0  0  0  0  0  0
   -5.6782    5.0992   10.7320 H   0  0  0  0  0  0  0  0  0  0  0  0
   -3.4917    4.1262   10.3818 H   0  0  0  0  0  0  0  0  0  0  0  0
   -9.9258    8.1154   14.6541 H   0  0  0  0  0  0  0  0  0  0  0  0
   -8.4278    7.6706   15.5698 H   0  0  0  0  0  0  0  0  0  0  0  0
   -9.0014    6.6752   14.2125 H   0  0  0  0  0  0  0  0  0  0  0  0
   -0.1472    0.3621   13.9052 H   0  0  0  0  0  0  0  0  0  0  0  0
   -2.9090    1.8705   12.2071 H   0  0  0  0  0  0  0  0  0  0  0  0
   -1.7156    1.9094   13.4939 H   0  0  0  0  0  0  0  0  0  0  0  0
   -1.3805    1.0280   11.9924 H   0  0  0  0  0  0  0  0  0  0  0  0
  1  2  1  0
  1 43  1  0
  1 44  1  0
  1 45  1  0
  2  3  1  0
  3  4  2  0
  3 40  1  0
  4  5  1  0
  4 46  1  0
  5  6  2  0
  5 47  1  0
  6  7  1  0
  6 39  1  0
  7  8  1  0
  7 48  1  0
  8  9  2  0
  8 16  1  0
  9 10  1  0
 10 11  2  0
 10 17  1  0
 11 12  1  0
 11 49  1  0
 12 13  1  0
 12 16  1  0
 13 14  2  0
 13 50  1  0
 14 15  1  0
 14 51  1  0
 15 16  2  0
 17 18  2  0
 17 22  1  0
 18 19  1  0
 18 52  1  0
 19 20  2  0
 19 53  1  0
 20 21  1  0
 20 54  1  0
 21 22  2  0
 21 23  1  0
 22 55  1  0
 23 24  2  0
 23 25  1  0
 25 26  1  0
 25 56  1  0
 26 27  2  0
 26 31  1  0
 27 28  1  0
 27 57  1  0
 28 29  2  0
 28 58  1  0
 29 30  1  0
 29 32  1  0
 30 31  2  0
 30 59  1  0
 31 60  1  0
 32 33  2  0
 32 34  1  0
 34 35  1  0
 35 36  2  0
 35 37  2  0
 35 38  1  0
 38 61  1  0
 38 62  1  0
 38 63  1  0
 39 40  2  0
 39 64  1  0
 40 41  1  0
 41 42  1  0
 42 65  1  0
 42 66  1  0
 42 67  1  0
M  CHG  1  34  -1
M  END
>  <s_m_entry_id>  (1) 
1022

>  <IC50[nM]>  (1) 
2.2

>  <s_m_Source_Path>  (1) 
/projects/mai/users/kmzp800_harry/pmx_colab/docking_jobs/syk

>  <s_m_Source_File>  (1) 
tnks2_lig.sdf

>  <i_m_Source_File_Index>  (1) 
36

>  <s_m_job_name>  (1) 
glide-dock_SP_tnks2_core_const

>  <r_i_docking_score>  (1) 
-8.92996746544538

>  <r_i_glide_gscore>  (1) 
-8.92996746544538

>  <r_i_glide_emodel>  (1) 
-86.3366133551159

>  <index_string>  (1) 
35:0:0

$$$$
