5:0:0
     RDKit          3D

 46 49  0  0  1  0  0  0  0  0999 V2000
  -14.4392  -14.8166  -27.6843 C   0  0  0  0  0  0  0  0  0  0  0  0
  -15.0363  -15.6231  -26.6963 C   0  0  0  0  0  0  0  0  0  0  0  0
  -14.5250  -13.4258  -27.5984 C   0  0  0  0  0  0  0  0  0  0  0  0
  -15.7711  -15.0270  -25.6443 C   0  0  0  0  0  0  0  0  0  0  0  0
  -14.8484  -17.0095  -26.7529 N   0  0  0  0  0  0  0  0  0  0  0  0
  -15.2485  -12.8401  -26.5488 C   0  0  0  0  0  0  0  0  0  0  0  0
  -15.8874  -13.6246  -25.5781 C   0  0  0  0  0  0  0  0  0  0  0  0
  -16.3852  -15.9436  -24.6241 C   0  0  0  0  0  0  0  0  0  0  0  0
  -16.1219  -17.2411  -24.8126 N   0  0  0  0  0  0  0  0  0  0  0  0
  -17.0856  -15.5686  -23.6887 O   0  0  0  0  0  0  0  0  0  0  0  0
  -15.3647  -17.7855  -25.8516 C   0  0  0  0  0  0  0  0  0  0  0  0
  -15.1953  -19.2587  -25.9357 C   0  0  0  0  0  0  0  0  0  0  0  0
  -15.4292  -20.0915  -24.8249 C   0  0  0  0  0  0  0  0  0  0  0  0
  -15.2139  -21.4793  -24.9202 C   0  0  0  0  0  0  0  0  0  0  0  0
  -14.7591  -22.0532  -26.1219 C   0  0  0  0  0  0  0  0  0  0  0  0
  -14.5412  -21.2133  -27.2295 C   0  0  0  0  0  0  0  0  0  0  0  0
  -14.7685  -19.8394  -27.1413 C   0  0  0  0  0  0  0  0  0  0  0  0
  -13.7325  -15.3728  -28.6952 F   0  0  0  0  0  0  0  0  0  0  0  0
  -15.3234  -11.5093  -26.4857 F   0  0  0  0  0  0  0  0  0  0  0  0
  -14.4855  -23.5466  -26.2134 C   0  0  0  0  0  0  0  0  0  0  0  0
  -15.4980  -24.2396  -27.1385 C   0  0  0  0  0  0  0  0  0  0  0  0
  -15.1812  -25.7303  -27.2974 C   0  0  0  0  0  0  0  0  0  0  0  0
  -13.8034  -25.9213  -27.8051 N   0  0  0  0  0  0  0  0  0  0  0  0
  -12.8009  -25.3363  -26.8880 C   0  0  0  0  0  0  0  0  0  0  0  0
  -13.0513  -23.8325  -26.7008 C   0  0  0  0  0  0  0  0  0  0  0  0
  -13.5186  -27.3432  -28.0686 C   0  0  0  0  0  0  0  0  0  0  0  0
  -14.0520  -12.8012  -28.3387 H   0  0  0  0  0  0  0  0  0  0  0  0
  -16.4441  -13.1432  -24.7848 H   0  0  0  0  0  0  0  0  0  0  0  0
  -16.5583  -17.8870  -24.1726 H   0  0  0  0  0  0  0  0  0  0  0  0
  -15.7614  -19.6805  -23.8833 H   0  0  0  0  0  0  0  0  0  0  0  0
  -15.3896  -22.1033  -24.0570 H   0  0  0  0  0  0  0  0  0  0  0  0
  -14.1780  -21.5729  -28.1706 H   0  0  0  0  0  0  0  0  0  0  0  0
  -14.5727  -19.2334  -28.0108 H   0  0  0  0  0  0  0  0  0  0  0  0
  -14.5932  -23.9617  -25.2082 H   0  0  0  0  0  0  0  0  0  0  0  0
  -15.4890  -23.7675  -28.1206 H   0  0  0  0  0  0  0  0  0  0  0  0
  -16.5075  -24.1150  -26.7480 H   0  0  0  0  0  0  0  0  0  0  0  0
  -15.8914  -26.1844  -27.9868 H   0  0  0  0  0  0  0  0  0  0  0  0
  -15.2978  -26.2424  -26.3398 H   0  0  0  0  0  0  0  0  0  0  0  0
  -11.7974  -25.4947  -27.2755 H   0  0  0  0  0  0  0  0  0  0  0  0
  -12.8482  -25.8640  -25.9386 H   0  0  0  0  0  0  0  0  0  0  0  0
  -12.3315  -23.4155  -25.9972 H   0  0  0  0  0  0  0  0  0  0  0  0
  -12.8713  -23.3306  -27.6503 H   0  0  0  0  0  0  0  0  0  0  0  0
  -13.5555  -27.9200  -27.1414 H   0  0  0  0  0  0  0  0  0  0  0  0
  -14.2495  -27.7578  -28.7610 H   0  0  0  0  0  0  0  0  0  0  0  0
  -12.5278  -27.4633  -28.5067 H   0  0  0  0  0  0  0  0  0  0  0  0
  -13.7336  -25.4230  -28.6838 H   0  0  0  0  0  0  0  0  0  0  0  0
  1  2  2  0
  1  3  1  0
  1 18  1  0
  2  4  1  0
  2  5  1  0
  3  6  2  0
  3 27  1  0
  4  7  2  0
  4  8  1  0
  5 11  2  0
  6  7  1  0
  6 19  1  0
  7 28  1  0
  8  9  1  0
  8 10  2  0
  9 11  1  0
  9 29  1  0
 11 12  1  0
 12 13  2  0
 12 17  1  0
 13 14  1  0
 13 30  1  0
 14 15  2  0
 14 31  1  0
 15 16  1  0
 15 20  1  0
 16 17  2  0
 16 32  1  0
 17 33  1  0
 20 21  1  0
 20 25  1  0
 20 34  1  0
 21 22  1  0
 21 35  1  0
 21 36  1  0
 22 23  1  0
 22 37  1  0
 22 38  1  0
 23 24  1  0
 23 26  1  0
 23 46  1  0
 24 25  1  0
 24 39  1  0
 24 40  1  0
 25 41  1  0
 25 42  1  0
 26 43  1  0
 26 44  1  0
 26 45  1  0
M  CHG  1  23   1
M  END
>  <s_m_entry_id>  (1) 
502

>  <Name>  (1) 
8e

>  <IC50[nM]>  (1) 
31

>  <s_m_Source_Path>  (1) 
/projects/mai/users/kmzp800_harry/pmx_colab/docking_jobs/tnks2

>  <s_m_Source_File>  (1) 
tnks2_lig.sdf

>  <i_m_Source_File_Index>  (1) 
15

>  <s_m_job_name>  (1) 
glide-dock_SP_tnks_mcs_fallabck

>  <r_i_docking_score>  (1) 
-10.1010639835402

>  <r_i_glide_gscore>  (1) 
-10.1010639835402

>  <r_i_glide_emodel>  (1) 
-41.4136214811372

>  <index_string>  (1) 
5:0:0

$$$$
