17:0:0
     RDKit          3D

 43 45  0  0  1  0  0  0  0  0999 V2000
   38.9521   36.5271   16.0020 F   0  0  0  0  0  0  0  0  0  0  0  0
   37.9036   36.1904   16.7733 C   0  0  0  0  0  0  0  0  0  0  0  0
   36.6920   35.8386   16.1614 C   0  0  0  0  0  0  0  0  0  0  0  0
   35.5679   35.5491   16.9474 C   0  0  0  0  0  0  0  0  0  0  0  0
   34.4213   35.1491   16.3486 F   0  0  0  0  0  0  0  0  0  0  0  0
   35.6366   35.6384   18.3520 C   0  0  0  0  0  0  0  0  0  0  0  0
   36.8740   35.9511   18.9689 C   0  0  0  0  0  0  0  0  0  0  0  0
   38.0066   36.2249   18.1769 C   0  0  0  0  0  0  0  0  0  0  0  0
   34.4976   35.3619   19.0651 O   0  0  0  0  0  0  0  0  0  0  0  0
   34.3105   35.9706   20.2769 C   0  0  0  0  0  0  0  0  0  0  0  0
   34.3258   37.3135   20.3920 C   0  0  0  0  0  0  0  0  0  0  0  0
   34.1054   35.0938   21.4312 C   0  0  0  0  0  0  0  0  0  0  0  0
   34.1518   33.8710   21.3116 O   0  0  0  0  0  0  0  0  0  0  0  0
   33.8989   35.7029   22.6342 N   0  0  0  0  0  0  0  0  0  0  0  0
   33.6731   34.8800   23.8352 C   0  0  0  0  0  0  0  0  0  0  0  0
   33.9545   37.1229   22.8166 C   0  0  0  0  0  0  0  0  0  0  0  0
   34.1684   37.9468   21.6919 C   0  0  0  0  0  0  0  0  0  0  0  0
   33.8396   37.6861   24.0351 N   0  0  0  0  0  0  0  0  0  0  0  0
   33.9491   39.0063   24.1397 C   0  0  0  0  0  0  0  0  0  0  0  0
   34.1518   39.8671   23.1430 N   0  0  0  0  0  0  0  0  0  0  0  0
   34.2551   39.3365   21.9059 C   0  0  0  0  0  0  0  0  0  0  0  0
   33.8799   39.5493   25.4026 N   0  0  0  0  0  0  0  0  0  0  0  0
   33.6930   38.8007   26.6432 C   0  0  0  0  0  0  0  0  0  0  0  0
   33.2708   39.7626   27.7724 C   0  0  0  0  0  0  0  0  0  0  0  0
   34.2607   40.7491   27.9944 O   0  0  0  0  0  0  0  0  0  0  0  0
   34.9224   37.9347   27.0153 C   0  0  0  0  0  0  0  0  0  0  0  0
   34.5524   36.9393   27.9495 O   0  0  0  0  0  0  0  0  0  0  0  0
   36.6263   35.7970   15.0891 H   0  0  0  0  0  0  0  0  0  0  0  0
   36.9658   35.9898   20.0453 H   0  0  0  0  0  0  0  0  0  0  0  0
   38.9486   36.4772   18.6409 H   0  0  0  0  0  0  0  0  0  0  0  0
   34.4769   37.9476   19.5298 H   0  0  0  0  0  0  0  0  0  0  0  0
   33.4697   33.8268   23.6354 H   0  0  0  0  0  0  0  0  0  0  0  0
   34.5477   34.9268   24.4858 H   0  0  0  0  0  0  0  0  0  0  0  0
   32.8177   35.2557   24.3984 H   0  0  0  0  0  0  0  0  0  0  0  0
   34.4263   40.0235   21.0906 H   0  0  0  0  0  0  0  0  0  0  0  0
   33.9338   40.5576   25.4726 H   0  0  0  0  0  0  0  0  0  0  0  0
   32.8551   38.1244   26.4642 H   0  0  0  0  0  0  0  0  0  0  0  0
   33.1120   39.2093   28.6991 H   0  0  0  0  0  0  0  0  0  0  0  0
   32.3277   40.2560   27.5315 H   0  0  0  0  0  0  0  0  0  0  0  0
   34.1737   41.4099   27.3151 H   0  0  0  0  0  0  0  0  0  0  0  0
   35.3232   37.4156   26.1451 H   0  0  0  0  0  0  0  0  0  0  0  0
   35.7365   38.5416   27.4146 H   0  0  0  0  0  0  0  0  0  0  0  0
   35.2152   36.2611   27.9548 H   0  0  0  0  0  0  0  0  0  0  0  0
  1  2  1  0
  2  8  2  0
  2  3  1  0
  3  4  2  0
  3 28  1  0
  4  5  1  0
  4  6  1  0
  6  7  2  0
  6  9  1  0
  7  8  1  0
  7 29  1  0
  8 30  1  0
  9 10  1  0
 10 11  2  0
 10 12  1  0
 11 17  1  0
 11 31  1  0
 12 13  2  0
 12 14  1  0
 14 15  1  0
 14 16  1  0
 15 32  1  0
 15 33  1  0
 15 34  1  0
 16 17  2  0
 16 18  1  0
 17 21  1  0
 18 19  2  0
 19 20  1  0
 19 22  1  0
 20 21  2  0
 21 35  1  0
 22 23  1  0
 22 36  1  0
 23 24  1  0
 23 26  1  0
 23 37  1  0
 24 25  1  0
 24 38  1  0
 24 39  1  0
 25 40  1  0
 26 27  1  0
 26 41  1  0
 26 42  1  0
 27 43  1  0
M  END
>  <s_m_entry_id>  (1) 
749

>  <i_f3d_flags>  (1) 
0

>  <r_lp_tautomer_probability>  (1) 
1

>  <r_epik_Ionization_Penalty>  (1) 
  0.0000

>  <r_epik_State_Penalty>  (1) 
  0.0000

>  <i_epik_Tot_Q>  (1) 
0

>  <s_m_job_name>  (1) 
glide-dock_SP_p38_all_ligs_no_cons_10_poses

>  <r_i_docking_score>  (1) 
-7.84585905275683

>  <r_i_glide_gscore>  (1) 
-7.84585905275683

>  <r_i_glide_emodel>  (1) 
-60.8205728228515

>  <index_string>  (1) 
17:0:0

$$$$
