26:0:0
     RDKit          3D

 47 49  0  0  1  0  0  0  0  0999 V2000
   34.0530   38.9805   23.9111 C   0  0  0  0  0  0  0  0  0  0  0  0
   34.7677   37.8613   21.5700 C   0  0  0  0  0  0  0  0  0  0  0  0
   35.1637   37.1904   20.3314 C   0  0  0  0  0  0  0  0  0  0  0  0
   34.1715   37.0909   22.5870 C   0  0  0  0  0  0  0  0  0  0  0  0
   34.9736   35.8601   20.1769 C   0  0  0  0  0  0  0  0  0  0  0  0
   33.9561   35.6934   22.3620 N   0  0  0  0  0  0  0  0  0  0  0  0
   34.3310   35.0530   21.2180 C   0  0  0  0  0  0  0  0  0  0  0  0
   34.1483   33.8473   21.0524 O   0  0  0  0  0  0  0  0  0  0  0  0
   34.9506   39.2349   21.8297 C   0  0  0  0  0  0  0  0  0  0  0  0
   34.5950   39.7945   23.0078 N   0  0  0  0  0  0  0  0  0  0  0  0
   33.8188   37.6815   23.7486 N   0  0  0  0  0  0  0  0  0  0  0  0
   33.3030   34.9377   23.4436 C   0  0  0  0  0  0  0  0  0  0  0  0
   33.7161   39.5493   25.1266 N   0  0  0  0  0  0  0  0  0  0  0  0
   35.6043   37.7965   19.5538 H   0  0  0  0  0  0  0  0  0  0  0  0
   35.4048   39.8840   21.0982 H   0  0  0  0  0  0  0  0  0  0  0  0
   33.0996   33.8914   23.2174 H   0  0  0  0  0  0  0  0  0  0  0  0
   33.9310   34.9584   24.3340 H   0  0  0  0  0  0  0  0  0  0  0  0
   32.3474   35.3991   23.6957 H   0  0  0  0  0  0  0  0  0  0  0  0
   33.9092   40.5439   25.2052 H   0  0  0  0  0  0  0  0  0  0  0  0
   32.6442   39.0834   26.0076 C   0  0  0  0  0  0  0  0  0  0  0  0
   31.2866   39.1347   25.2797 C   0  0  0  0  0  0  0  0  0  0  0  0
   32.9687   37.7488   26.7296 C   0  0  0  0  0  0  0  0  0  0  0  0
   32.5900   39.8428   26.7871 H   0  0  0  0  0  0  0  0  0  0  0  0
   30.4539   38.9933   25.9641 H   0  0  0  0  0  0  0  0  0  0  0  0
   31.1322   40.1093   24.8137 H   0  0  0  0  0  0  0  0  0  0  0  0
   31.2155   38.3766   24.4988 H   0  0  0  0  0  0  0  0  0  0  0  0
   33.9102   37.8558   27.2655 H   0  0  0  0  0  0  0  0  0  0  0  0
   33.0923   36.9173   26.0416 H   0  0  0  0  0  0  0  0  0  0  0  0
   31.7051   37.2263   27.9783 S   0  0  0  0  0  0  0  0  0  0  0  0
   30.9569   38.4087   28.4276 O   0  0  0  0  0  0  0  0  0  0  0  0
   30.5718   36.1599   26.9946 C   0  0  0  0  0  0  0  0  0  0  0  0
   32.3746   36.3654   28.9648 O   0  0  0  0  0  0  0  0  0  0  0  0
   29.7563   35.8201   27.6337 H   0  0  0  0  0  0  0  0  0  0  0  0
   31.1118   35.2923   26.6204 H   0  0  0  0  0  0  0  0  0  0  0  0
   30.1496   36.7116   26.1585 H   0  0  0  0  0  0  0  0  0  0  0  0
   35.2916   35.1658   19.0337 O   0  0  0  0  0  0  0  0  0  0  0  0
   37.8160   36.5710   16.0047 C   0  0  0  0  0  0  0  0  0  0  0  0
   38.3556   36.3493   17.2894 C   0  0  0  0  0  0  0  0  0  0  0  0
   37.5110   35.9517   18.3455 C   0  0  0  0  0  0  0  0  0  0  0  0
   36.1518   35.6553   18.0862 C   0  0  0  0  0  0  0  0  0  0  0  0
   35.6789   35.7307   16.7680 C   0  0  0  0  0  0  0  0  0  0  0  0
   36.4782   36.2544   15.7425 C   0  0  0  0  0  0  0  0  0  0  0  0
   38.5526   37.1497   15.0346 F   0  0  0  0  0  0  0  0  0  0  0  0
   39.3879   36.5993   17.4922 H   0  0  0  0  0  0  0  0  0  0  0  0
   38.0018   35.9129   19.6029 F   0  0  0  0  0  0  0  0  0  0  0  0
   34.6510   35.4708   16.5581 H   0  0  0  0  0  0  0  0  0  0  0  0
   36.0651   36.4227   14.7568 H   0  0  0  0  0  0  0  0  0  0  0  0
  1 10  2  0
  1 11  1  0
  1 13  1  0
  2  3  1  0
  2  4  1  0
  2  9  2  0
  3  5  2  0
  3 14  1  0
  4  6  1  0
  4 11  2  0
  5  7  1  0
  5 36  1  0
  6  7  1  0
  6 12  1  0
  7  8  2  0
  9 10  1  0
  9 15  1  0
 12 16  1  0
 12 17  1  0
 12 18  1  0
 13 19  1  0
 13 20  1  0
 20 21  1  0
 20 22  1  0
 20 23  1  0
 21 24  1  0
 21 25  1  0
 21 26  1  0
 22 27  1  0
 22 28  1  0
 22 29  1  0
 29 30  2  0
 29 31  1  0
 29 32  2  0
 31 33  1  0
 31 34  1  0
 31 35  1  0
 36 40  1  0
 37 38  2  0
 37 42  1  0
 37 43  1  0
 38 39  1  0
 38 44  1  0
 39 40  2  0
 39 45  1  0
 40 41  1  0
 41 42  2  0
 41 46  1  0
 42 47  1  0
M  END
>  <s_m_entry_id>  (1) 
844

>  <s_m_Source_Path>  (1) 
/projects/mai/users/kmzp800_harry/pmx_colab/docking_jobs/p38/glide-dock_SP_p38_mcs_docking_2

>  <s_m_Source_File>  (1) 
glide-dock_SP_p38_mcs_docking_2_pv.maegz

>  <i_m_Source_File_Index>  (1) 
28

>  <s_pdb_PDB_TITLE>  (1) 
MX MODEL

>  <r_i_docking_score>  (1) 
-7.01067028133592

>  <r_i_glide_gscore>  (1) 
-7.01067028133592

>  <r_i_glide_emodel>  (1) 
-40.43498370262

>  <index_string>  (1) 
26:0:0

$$$$
