18:0:0
     RDKit          3D

 40 42  0  0  1  0  0  0  0  0999 V2000
  -15.2341  -19.2713  -25.9293 C   0  0  0  0  0  0  0  0  0  0  0  0
  -14.7811  -19.8424  -27.1377 C   0  0  0  0  0  0  0  0  0  0  0  0
  -15.4758  -20.1054  -24.8194 C   0  0  0  0  0  0  0  0  0  0  0  0
  -14.5677  -21.2195  -27.2214 C   0  0  0  0  0  0  0  0  0  0  0  0
  -15.2513  -21.4925  -24.9135 C   0  0  0  0  0  0  0  0  0  0  0  0
  -14.8482  -17.0224  -26.7414 N   0  0  0  0  0  0  0  0  0  0  0  0
  -14.7933  -22.0678  -26.1203 C   0  0  0  0  0  0  0  0  0  0  0  0
  -14.5019  -23.5661  -26.2078 C   0  0  0  0  0  0  0  0  0  0  0  0
  -15.0248  -15.6332  -26.7066 C   0  0  0  0  0  0  0  0  0  0  0  0
  -15.7350  -15.0155  -25.6492 C   0  0  0  0  0  0  0  0  0  0  0  0
  -15.2008  -12.8388  -26.6454 C   0  0  0  0  0  0  0  0  0  0  0  0
  -14.4921  -13.4603  -27.6634 C   0  0  0  0  0  0  0  0  0  0  0  0
  -15.8366  -13.5979  -25.6240 C   0  0  0  0  0  0  0  0  0  0  0  0
  -14.4462  -14.8470  -27.7236 C   0  0  0  0  0  0  0  0  0  0  0  0
  -16.3456  -15.9367  -24.6148 C   0  0  0  0  0  0  0  0  0  0  0  0
  -16.1307  -17.2391  -24.8112 N   0  0  0  0  0  0  0  0  0  0  0  0
  -15.3751  -17.7919  -25.8363 C   0  0  0  0  0  0  0  0  0  0  0  0
  -16.9965  -15.5707  -23.6483 O   0  0  0  0  0  0  0  0  0  0  0  0
  -15.7405  -24.3736  -25.7810 C   0  0  0  0  0  0  0  0  0  0  0  0
  -14.2247  -23.9946  -27.5276 O   0  0  0  0  0  0  0  0  0  0  0  0
  -13.2366  -23.8780  -25.3855 C   0  0  0  0  0  0  0  0  0  0  0  0
  -13.6946  -15.4366  -28.8838 C   0  0  0  0  0  0  0  0  0  0  0  0
  -15.2487  -11.4996  -26.7385 F   0  0  0  0  0  0  0  0  0  0  0  0
  -14.5632  -19.2324  -28.0029 H   0  0  0  0  0  0  0  0  0  0  0  0
  -15.8062  -19.6980  -23.8754 H   0  0  0  0  0  0  0  0  0  0  0  0
  -14.1759  -21.5729  -28.1546 H   0  0  0  0  0  0  0  0  0  0  0  0
  -15.4191  -22.1090  -24.0432 H   0  0  0  0  0  0  0  0  0  0  0  0
  -14.0230  -12.8532  -28.4258 H   0  0  0  0  0  0  0  0  0  0  0  0
  -16.3892  -13.1016  -24.8386 H   0  0  0  0  0  0  0  0  0  0  0  0
  -16.5819  -17.8688  -24.1597 H   0  0  0  0  0  0  0  0  0  0  0  0
  -15.9732  -24.2336  -24.7268 H   0  0  0  0  0  0  0  0  0  0  0  0
  -15.6330  -25.4439  -25.9433 H   0  0  0  0  0  0  0  0  0  0  0  0
  -16.6166  -24.0610  -26.3501 H   0  0  0  0  0  0  0  0  0  0  0  0
  -14.0318  -24.9193  -27.5086 H   0  0  0  0  0  0  0  0  0  0  0  0
  -13.4090  -23.7441  -24.3168 H   0  0  0  0  0  0  0  0  0  0  0  0
  -12.8483  -24.8847  -25.5425 H   0  0  0  0  0  0  0  0  0  0  0  0
  -12.4321  -23.1984  -25.6658 H   0  0  0  0  0  0  0  0  0  0  0  0
  -13.7693  -14.7898  -29.7592 H   0  0  0  0  0  0  0  0  0  0  0  0
  -12.6393  -15.5727  -28.6687 H   0  0  0  0  0  0  0  0  0  0  0  0
  -14.1244  -16.3967  -29.1385 H   0  0  0  0  0  0  0  0  0  0  0  0
  1  2  2  0
  1  3  1  0
  1 17  1  0
  2  4  1  0
  2 24  1  0
  3  5  2  0
  3 25  1  0
  4  7  2  0
  4 26  1  0
  5  7  1  0
  5 27  1  0
  6  9  1  0
  6 17  2  0
  7  8  1  0
  8 19  1  0
  8 20  1  0
  8 21  1  0
  9 10  2  0
  9 14  1  0
 10 13  1  0
 10 15  1  0
 11 12  1  0
 11 13  2  0
 11 23  1  0
 12 14  2  0
 12 28  1  0
 13 29  1  0
 14 22  1  0
 15 16  1  0
 15 18  2  0
 16 17  1  0
 16 30  1  0
 19 31  1  0
 19 32  1  0
 19 33  1  0
 20 34  1  0
 21 35  1  0
 21 36  1  0
 21 37  1  0
 22 38  1  0
 22 39  1  0
 22 40  1  0
M  END
>  <s_m_entry_id>  (1) 
460

>  <Name>  (1) 
5m

>  <IC50[nM]>  (1) 
0.5

>  <s_m_Source_Path>  (1) 
/projects/mai/users/kmzp800_harry/pmx_colab/docking_jobs/tnks2

>  <s_m_Source_File>  (1) 
tnks2_lig.sdf

>  <i_m_Source_File_Index>  (1) 
19

>  <s_m_job_name>  (1) 
glide-dock_SP_tnks2_core_const

>  <r_i_docking_score>  (1) 
-10.4958092367661

>  <r_i_glide_gscore>  (1) 
-10.4958092367661

>  <r_i_glide_emodel>  (1) 
-37.5137076026867

>  <index_string>  (1) 
18:0:0

$$$$
