9:0:0
     RDKit          3D

 50 54  0  0  1  0  0  0  0  0999 V2000
    2.7171    7.4714    8.1569 C   0  0  0  0  0  0  0  0  0  0  0  0
    3.6296    6.7859    8.9995 O   0  0  0  0  0  0  0  0  0  0  0  0
    3.1146    5.8594    9.8803 C   0  0  0  0  0  0  0  0  0  0  0  0
    1.8325    5.2715    9.7430 C   0  0  0  0  0  0  0  0  0  0  0  0
    1.3747    4.3289   10.6820 C   0  0  0  0  0  0  0  0  0  0  0  0
    2.1587    3.9960   11.8051 C   0  0  0  0  0  0  0  0  0  0  0  0
    1.6190    3.1025   12.7443 N   0  0  0  0  0  0  0  0  0  0  0  0
    2.1443    1.9076   13.2687 C   0  0  0  0  0  0  0  0  0  0  0  0
    1.2054    1.0435   13.5392 N   0  0  0  0  0  0  0  0  0  0  0  0
    1.5120   -0.1600   14.1326 C   0  0  0  0  0  0  0  0  0  0  0  0
    2.8037   -0.5118   14.4408 C   0  0  0  0  0  0  0  0  0  0  0  0
    3.7795    0.4042   14.2174 N   0  0  0  0  0  0  0  0  0  0  0  0
    5.1104    0.4054   14.5954 C   0  0  0  0  0  0  0  0  0  0  0  0
    5.6280    1.5949   14.1859 C   0  0  0  0  0  0  0  0  0  0  0  0
    4.6647    2.3374   13.5216 N   0  0  0  0  0  0  0  0  0  0  0  0
    3.5219    1.6525   13.5977 C   0  0  0  0  0  0  0  0  0  0  0  0
    0.3600   -1.0299   14.4832 C   0  0  0  0  0  0  0  0  0  0  0  0
    0.4749   -2.0116   15.4976 C   0  0  0  0  0  0  0  0  0  0  0  0
   -0.5944   -2.8650   15.8253 C   0  0  0  0  0  0  0  0  0  0  0  0
   -1.8220   -2.7451   15.1565 C   0  0  0  0  0  0  0  0  0  0  0  0
   -2.8584   -3.6019   15.4476 O   0  0  0  0  0  0  0  0  0  0  0  0
   -4.1836   -3.1563   15.1294 C   0  0  0  0  0  0  0  0  0  0  0  0
   -4.2575   -2.3952   13.7924 C   0  0  0  0  0  0  0  0  0  0  0  0
   -5.2988   -2.3637   13.1393 O   0  0  0  0  0  0  0  0  0  0  0  0
   -3.1662   -1.7174   13.4170 N   0  0  0  0  0  0  0  0  0  0  0  0
   -1.9609   -1.7716   14.1477 C   0  0  0  0  0  0  0  0  0  0  0  0
   -0.8854   -0.9204   13.8169 C   0  0  0  0  0  0  0  0  0  0  0  0
    3.4061    4.6321   11.9675 C   0  0  0  0  0  0  0  0  0  0  0  0
    3.9287    5.4890   10.9706 C   0  0  0  0  0  0  0  0  0  0  0  0
    5.2099    5.9979   11.0182 O   0  0  0  0  0  0  0  0  0  0  0  0
    6.1430    5.3291   11.8601 C   0  0  0  0  0  0  0  0  0  0  0  0
    3.2443    8.2584    7.6178 H   0  0  0  0  0  0  0  0  0  0  0  0
    1.9205    7.9418    8.7352 H   0  0  0  0  0  0  0  0  0  0  0  0
    2.2785    6.8037    7.4177 H   0  0  0  0  0  0  0  0  0  0  0  0
    1.1896    5.5138    8.9113 H   0  0  0  0  0  0  0  0  0  0  0  0
    0.4015    3.8785   10.5442 H   0  0  0  0  0  0  0  0  0  0  0  0
    0.6150    3.0350   12.6787 H   0  0  0  0  0  0  0  0  0  0  0  0
    3.0968   -1.4387   14.9219 H   0  0  0  0  0  0  0  0  0  0  0  0
    5.5415   -0.4047   15.1555 H   0  0  0  0  0  0  0  0  0  0  0  0
    6.6315    1.9756   14.3075 H   0  0  0  0  0  0  0  0  0  0  0  0
    1.3914   -2.1296   16.0559 H   0  0  0  0  0  0  0  0  0  0  0  0
   -0.4734   -3.6069   16.6005 H   0  0  0  0  0  0  0  0  0  0  0  0
   -4.8488   -4.0205   15.0938 H   0  0  0  0  0  0  0  0  0  0  0  0
   -4.5410   -2.5063   15.9310 H   0  0  0  0  0  0  0  0  0  0  0  0
   -3.1779   -1.1964   12.5501 H   0  0  0  0  0  0  0  0  0  0  0  0
   -1.0084   -0.1980   13.0223 H   0  0  0  0  0  0  0  0  0  0  0  0
    3.9590    4.4930   12.8758 H   0  0  0  0  0  0  0  0  0  0  0  0
    7.1590    5.6090   11.5885 H   0  0  0  0  0  0  0  0  0  0  0  0
    5.9882    5.6020   12.9027 H   0  0  0  0  0  0  0  0  0  0  0  0
    6.0825    4.2438   11.7657 H   0  0  0  0  0  0  0  0  0  0  0  0
  1  2  1  0
  1 32  1  0
  1 33  1  0
  1 34  1  0
  2  3  1  0
  3  4  2  0
  3 29  1  0
  4  5  1  0
  4 35  1  0
  5  6  2  0
  5 36  1  0
  6  7  1  0
  6 28  1  0
  7  8  1  0
  7 37  1  0
  8  9  2  0
  8 16  1  0
  9 10  1  0
 10 11  2  0
 10 17  1  0
 11 12  1  0
 11 38  1  0
 12 13  1  0
 12 16  1  0
 13 14  2  0
 13 39  1  0
 14 15  1  0
 14 40  1  0
 15 16  2  0
 17 18  2  0
 17 27  1  0
 18 19  1  0
 18 41  1  0
 19 20  2  0
 19 42  1  0
 20 21  1  0
 20 26  1  0
 21 22  1  0
 22 23  1  0
 22 43  1  0
 22 44  1  0
 23 24  2  0
 23 25  1  0
 25 26  1  0
 25 45  1  0
 26 27  2  0
 27 46  1  0
 28 29  2  0
 28 47  1  0
 29 30  1  0
 30 31  1  0
 31 48  1  0
 31 49  1  0
 31 50  1  0
M  END
>  <s_m_entry_id>  (1) 
689

>  <IC50[nM]>  (1) 
2.3

>  <s_m_Source_Path>  (1) 
/projects/mai/users/kmzp800_harry/pmx_colab/docking_jobs/syk

>  <s_m_Source_File>  (1) 
tnks2_lig.sdf

>  <i_m_Source_File_Index>  (1) 
10

>  <s_m_job_name>  (1) 
glide-dock_SP_tnks2_no_const

>  <r_i_docking_score>  (1) 
-5.9607631949809

>  <r_i_glide_gscore>  (1) 
-5.9607631949809

>  <r_i_glide_emodel>  (1) 
-60.0962227478924

>  <index_string>  (1) 
9:0:0

$$$$
