41:0:0
     RDKit          3D

 48 52  0  0  1  0  0  0  0  0999 V2000
    5.5190   -0.5810   16.2740 C   0  0  0  0  0  0  0  0  0  0  0  0
    4.2380   -1.0120   16.1520 N   0  0  0  0  0  0  0  0  0  0  0  0
    3.7520   -0.2740   15.1390 C   0  0  0  0  0  0  0  0  0  0  0  0
    2.4640   -0.3290   14.6110 C   0  0  0  0  0  0  0  0  0  0  0  0
    1.4990   -1.2420   15.1500 N   0  0  0  0  0  0  0  0  0  0  0  0
    2.1670    0.5120   13.5750 N   0  0  0  0  0  0  0  0  0  0  0  0
    3.0890    1.3860   13.0570 C   0  0  0  0  0  0  0  0  0  0  0  0
    4.3830    1.4200   13.6120 C   0  0  0  0  0  0  0  0  0  0  0  0
    4.6490    0.5770   14.6360 N   0  0  0  0  0  0  0  0  0  0  0  0
    5.7820    0.4110   15.3310 C   0  0  0  0  0  0  0  0  0  0  0  0
    2.7220    2.2770   11.9370 C   0  0  0  0  0  0  0  0  0  0  0  0
    3.7140    2.7000   11.0180 C   0  0  0  0  0  0  0  0  0  0  0  0
    3.3930    3.5480    9.9430 C   0  0  0  0  0  0  0  0  0  0  0  0
    2.0670    3.9540    9.8170 C   0  0  0  0  0  0  0  0  0  0  0  0
    1.1050    3.5540   10.6960 C   0  0  0  0  0  0  0  0  0  0  0  0
    1.3900    2.7150   11.7690 C   0  0  0  0  0  0  0  0  0  0  0  0
   -0.0880    4.1160   10.3100 C   0  0  0  0  0  0  0  0  0  0  0  0
    0.2410    4.8540    9.1720 C   0  0  0  0  0  0  0  0  0  0  0  0
    1.5610    4.7550    8.8700 N   0  0  0  0  0  0  0  0  0  0  0  0
    0.1400   -1.4290   14.7300 C   0  0  0  0  0  0  0  0  0  0  0  0
   -0.5070   -2.6170   15.0760 C   0  0  0  0  0  0  0  0  0  0  0  0
   -1.8290   -2.8410   14.6890 C   0  0  0  0  0  0  0  0  0  0  0  0
   -2.5260   -1.8750   13.9460 C   0  0  0  0  0  0  0  0  0  0  0  0
   -1.8850   -0.6790   13.5930 C   0  0  0  0  0  0  0  0  0  0  0  0
   -0.5530   -0.4620   13.9880 C   0  0  0  0  0  0  0  0  0  0  0  0
   -3.8510   -2.0840   13.5490 O   0  0  0  0  0  0  0  0  0  0  0  0
   -4.2610   -3.2200   12.7990 C   0  0  0  0  0  0  0  0  0  0  0  0
   -2.5880    0.2770   12.8520 O   0  0  0  0  0  0  0  0  0  0  0  0
   -1.9450    1.2830   12.0830 C   0  0  0  0  0  0  0  0  0  0  0  0
    6.2439   -0.9593   17.0097 H   0  0  0  0  0  0  0  0  0  0  0  0
    1.8190   -1.8331   15.9304 H   0  0  0  0  0  0  0  0  0  0  0  0
    5.1501    2.1077   13.2265 H   0  0  0  0  0  0  0  0  0  0  0  0
    6.7301    0.9497   15.1864 H   0  0  0  0  0  0  0  0  0  0  0  0
    4.7520    2.3596   11.1475 H   0  0  0  0  0  0  0  0  0  0  0  0
    4.1610    3.8783    9.2281 H   0  0  0  0  0  0  0  0  0  0  0  0
    0.5997    2.4016   12.4670 H   0  0  0  0  0  0  0  0  0  0  0  0
   -1.0734    4.0091   10.7871 H   0  0  0  0  0  0  0  0  0  0  0  0
   -0.4819    5.4446    8.5900 H   0  0  0  0  0  0  0  0  0  0  0  0
    2.0622    5.1976    8.0865 H   0  0  0  0  0  0  0  0  0  0  0  0
    0.0290   -3.3815   15.6576 H   0  0  0  0  0  0  0  0  0  0  0  0
   -2.3282   -3.7807   14.9680 H   0  0  0  0  0  0  0  0  0  0  0  0
   -0.0494    0.4762   13.7120 H   0  0  0  0  0  0  0  0  0  0  0  0
   -4.5525   -4.0276   13.4866 H   0  0  0  0  0  0  0  0  0  0  0  0
   -5.1187   -2.9508   12.1650 H   0  0  0  0  0  0  0  0  0  0  0  0
   -3.4291   -3.5606   12.1650 H   0  0  0  0  0  0  0  0  0  0  0  0
   -1.4765    2.0159   12.7563 H   0  0  0  0  0  0  0  0  0  0  0  0
   -1.1734    0.8224   11.4485 H   0  0  0  0  0  0  0  0  0  0  0  0
   -2.6870    1.7898   11.4485 H   0  0  0  0  0  0  0  0  0  0  0  0
  1  2  1  0
  1 10  2  0
  2  3  2  0
  3  4  1  0
  3  9  1  0
  4  5  1  0
  4  6  2  0
  5 20  1  0
  6  7  1  0
  7  8  2  0
  7 11  1  0
  8  9  1  0
  9 10  1  0
 11 12  2  0
 11 16  1  0
 12 13  1  0
 13 14  2  0
 14 15  1  0
 14 19  1  0
 15 16  2  0
 15 17  1  0
 17 18  2  0
 18 19  1  0
 20 21  2  0
 20 25  1  0
 21 22  1  0
 22 23  2  0
 23 24  1  0
 23 26  1  0
 24 25  2  0
 24 28  1  0
 26 27  1  0
 28 29  1  0
  1 30  1  0
  5 31  1  0
  8 32  1  0
 10 33  1  0
 12 34  1  0
 13 35  1  0
 16 36  1  0
 17 37  1  0
 18 38  1  0
 19 39  1  0
 21 40  1  0
 22 41  1  0
 25 42  1  0
 27 43  1  0
 27 44  1  0
 27 45  1  0
 29 46  1  0
 29 47  1  0
 29 48  1  0
M  END
>  <s_m_entry_id>  (1) 
42

>  <MODEL>  (1) 
1

>  <REMARK>  (1) 
 VINA RESULT:    -9.497      0.000      0.000
 INTER + INTRA:         -12.166
 INTER:                 -11.717
 INTRA:                  -0.449
 UNBOUND:                -0.449
  Name = /scratch/kmzp800/tmp1v4rzlkh/tmpa4nf9wnl.pdb
  6 active torsions:
  status: ('A' for Active; 'I' for Inactive)
    1  A    between atoms: N2_5  and  C4_6
    2  A    between atoms: C7_9  and  O1_10
    3  A    between atoms: O1_10  and  C8_11
    4  A    between atoms: C9_12  and  O2_13
    5  A    between atoms: O2_13  and  C10_14
    6  A    between atoms: C12_17  and  C13_18
                            x       y       z     vdW  Elec       q    Type
                         _______ _______ _______ _____ _____    ______ ____

>  <TORSDO>  (1) 
F 4

>  <grid_id>  (1) 
syk-prepared

>  <grid_path>  (1) 
syk_vina.pdbqt

>  <grid_filename>  (1) 
syk_vina.pdbqt

>  <docking_score>  (1) 
-9.497

>  <compound_name>  (1) 
CHEMBL3265020

>  <index_string>  (1) 
41:0:0

>  <s_m_Source_Path>  (1) 
/projects/mai/users/kmzp800_harry/pmx_colab/docking_jobs/syk/vina_prep/output

>  <s_m_Source_File>  (1) 
ptp1b_docked_conformers.sdf

>  <i_m_Source_File_Index>  (1) 
42

$$$$
