11:0:0
     RDKit          3D

 48 51  0  0  1  0  0  0  0  0999 V2000
   33.5010   35.7460   19.8870 C   0  0  0  0  0  0  0  0  0  0  0  0
   33.4010   36.9980   20.4920 C   0  0  0  0  0  0  0  0  0  0  0  0
   33.0850   37.0860   21.8430 C   0  0  0  0  0  0  0  0  0  0  0  0
   32.9760   38.3200   22.4790 C   0  0  0  0  0  0  0  0  0  0  0  0
   32.6670   38.3710   23.8000 N   0  0  0  0  0  0  0  0  0  0  0  0
   32.4620   37.2330   24.5190 C   0  0  0  0  0  0  0  0  0  0  0  0
   32.1350   37.3000   25.9080 N   0  0  0  0  0  0  0  0  0  0  0  0
   32.5630   36.0200   23.9130 N   0  0  0  0  0  0  0  0  0  0  0  0
   32.8710   35.9150   22.5900 C   0  0  0  0  0  0  0  0  0  0  0  0
   32.9740   34.6900   21.9870 N   0  0  0  0  0  0  0  0  0  0  0  0
   32.7510   33.4770   22.7690 C   0  0  0  0  0  0  0  0  0  0  0  0
   33.2850   34.5870   20.6550 C   0  0  0  0  0  0  0  0  0  0  0  0
   33.3780   33.4520   20.1110 O   0  0  0  0  0  0  0  0  0  0  0  0
   32.0420   38.5560   26.6420 C   0  0  0  0  0  0  0  0  0  0  0  0
   31.1670   38.3570   27.8860 C   0  0  0  0  0  0  0  0  0  0  0  0
   31.9690   37.8480   29.0940 C   0  0  0  0  0  0  0  0  0  0  0  0
   33.2200   37.3450   28.7020 O   0  0  0  0  0  0  0  0  0  0  0  0
   33.9760   38.4630   28.3110 C   0  0  0  0  0  0  0  0  0  0  0  0
   33.4480   39.0630   26.9990 C   0  0  0  0  0  0  0  0  0  0  0  0
   33.8650   35.6650   18.4370 C   0  0  0  0  0  0  0  0  0  0  0  0
   38.1210   35.9760   17.9450 C   0  0  0  0  0  0  0  0  0  0  0  0
   37.5560   36.0120   19.2220 C   0  0  0  0  0  0  0  0  0  0  0  0
   36.1710   35.9030   19.3770 C   0  0  0  0  0  0  0  0  0  0  0  0
   35.3460   35.7570   18.2550 C   0  0  0  0  0  0  0  0  0  0  0  0
   35.9150   35.7250   16.9720 C   0  0  0  0  0  0  0  0  0  0  0  0
   35.1340   35.5890   15.8720 F   0  0  0  0  0  0  0  0  0  0  0  0
   37.3010   35.8330   16.8210 C   0  0  0  0  0  0  0  0  0  0  0  0
   33.5713   37.9116   19.9034 H   0  0  0  0  0  0  0  0  0  0  0  0
   33.1395   39.2493   21.9136 H   0  0  0  0  0  0  0  0  0  0  0  0
   31.9568   36.4207   26.4139 H   0  0  0  0  0  0  0  0  0  0  0  0
   32.7954   33.7186   23.8412 H   0  0  0  0  0  0  0  0  0  0  0  0
   31.7615   33.0617   22.5274 H   0  0  0  0  0  0  0  0  0  0  0  0
   33.5281   32.7369   22.5274 H   0  0  0  0  0  0  0  0  0  0  0  0
   31.5674   39.3248   26.0145 H   0  0  0  0  0  0  0  0  0  0  0  0
   30.7046   39.3196   28.1498 H   0  0  0  0  0  0  0  0  0  0  0  0
   30.4092   37.5974   27.6437 H   0  0  0  0  0  0  0  0  0  0  0  0
   32.1219   38.6791   29.7982 H   0  0  0  0  0  0  0  0  0  0  0  0
   31.4015   37.0341   29.5689 H   0  0  0  0  0  0  0  0  0  0  0  0
   33.9220   39.2262   29.1013 H   0  0  0  0  0  0  0  0  0  0  0  0
   35.0155   38.1406   28.1516 H   0  0  0  0  0  0  0  0  0  0  0  0
   34.1372   38.7928   26.1854 H   0  0  0  0  0  0  0  0  0  0  0  0
   33.3856   40.1531   27.1321 H   0  0  0  0  0  0  0  0  0  0  0  0
   33.5105   34.7069   18.0293 H   0  0  0  0  0  0  0  0  0  0  0  0
   33.3920   36.5052   17.9075 H   0  0  0  0  0  0  0  0  0  0  0  0
   39.2110   36.0601   17.8234 H   0  0  0  0  0  0  0  0  0  0  0  0
   38.2010   36.1261   20.1057 H   0  0  0  0  0  0  0  0  0  0  0  0
   35.7279   35.9320   20.3834 H   0  0  0  0  0  0  0  0  0  0  0  0
   37.7473   35.8054   15.8160 H   0  0  0  0  0  0  0  0  0  0  0  0
  1  2  2  0
  1 12  1  0
  1 20  1  0
  2  3  1  0
  2 28  1  0
  3  4  2  0
  3  9  1  0
  4  5  1  0
  4 29  1  0
  5  6  2  0
  6  7  1  0
  6  8  1  0
  7 14  1  0
  7 30  1  0
  8  9  2  0
  9 10  1  0
 10 11  1  0
 10 12  1  0
 11 31  1  0
 11 32  1  0
 11 33  1  0
 12 13  2  0
 14 19  1  0
 14 15  1  0
 14 34  1  0
 15 16  1  0
 15 35  1  0
 15 36  1  0
 16 17  1  0
 16 37  1  0
 16 38  1  0
 17 18  1  0
 18 19  1  0
 18 39  1  0
 18 40  1  0
 19 41  1  0
 19 42  1  0
 20 24  1  0
 20 43  1  0
 20 44  1  0
 21 22  2  0
 21 27  1  0
 21 45  1  0
 22 23  1  0
 22 46  1  0
 23 24  2  0
 23 47  1  0
 24 25  1  0
 25 26  1  0
 25 27  2  0
 27 48  1  0
M  END
>  <s_m_entry_id>  (1) 
1366

>  <MODEL>  (1) 
1

>  <REMARK>  (1) 
 VINA RESULT:    -8.463      0.000      0.000
 INTER + INTRA:         -10.256
 INTER:                  -9.948
 INTRA:                  -0.308
 UNBOUND:                -0.308
  Name = /scratch/kmzp800/tmpa57knzjp/tmpsd1by3ec.pdb
  4 active torsions:
  status: ('A' for Active; 'I' for Inactive)
    1  A    between atoms: C4_4  and  C5_5
    2  A    between atoms: C5_5  and  C6_6
    3  A    between atoms: N2_12  and  C11_13
    4  A    between atoms: N4_21  and  C17_22
                            x       y       z     vdW  Elec       q    Type
                         _______ _______ _______ _____ _____    ______ ____

>  <TORSDO>  (1) 
F 3

>  <grid_id>  (1) 
p38-prepared

>  <grid_path>  (1) 
/projects/mai/users/kmzp800_harry/pmx_colab/docking_jobs/p38/vina_docking/input_files/p38_vina.pdbqt

>  <grid_filename>  (1) 
p38_vina.pdbqt

>  <docking_score>  (1) 
-8.463

>  <compound_name>  (1) 
lig_p38a_2i

>  <index_string>  (1) 
11:0:0

>  <s_m_Source_Path>  (1) 
/projects/mai/users/kmzp800_harry/pmx_colab/docking_jobs/p38

>  <s_m_Source_File>  (1) 
p38_confs_vina_naive.sdf

>  <i_m_Source_File_Index>  (1) 
13

$$$$
