42:0:0
     RDKit          3D

 52 57  0  0  1  0  0  0  0  0999 V2000
   -6.7379   -2.9510   14.1515 C   0  0  0  0  0  0  0  0  0  0  0  0
   -5.5358   -2.3497   13.4324 C   0  0  0  0  0  0  0  0  0  0  0  0
   -5.8694   -1.9328   12.1319 O   0  0  0  0  0  0  0  0  0  0  0  0
   -4.7824   -1.2908   14.2415 C   0  0  0  0  0  0  0  0  0  0  0  0
   -3.8602   -2.3646   14.5917 N   0  0  0  0  0  0  0  0  0  0  0  0
   -4.2707   -3.2127   13.4837 C   0  0  0  0  0  0  0  0  0  0  0  0
   -2.5220   -2.1098   14.8094 C   0  0  0  0  0  0  0  0  0  0  0  0
   -1.7513   -2.8708   15.6810 C   0  0  0  0  0  0  0  0  0  0  0  0
   -0.3882   -2.6084   15.8173 C   0  0  0  0  0  0  0  0  0  0  0  0
    0.2257   -1.5803   15.0913 C   0  0  0  0  0  0  0  0  0  0  0  0
    1.5926   -1.3477   15.3078 N   0  0  0  0  0  0  0  0  0  0  0  0
    2.5497   -0.4702   14.7489 C   0  0  0  0  0  0  0  0  0  0  0  0
    2.2193    0.3527   13.7196 N   0  0  0  0  0  0  0  0  0  0  0  0
    3.1185    1.2440   13.2221 C   0  0  0  0  0  0  0  0  0  0  0  0
    4.4235    1.3081   13.7185 C   0  0  0  0  0  0  0  0  0  0  0  0
    4.7461    0.4907   14.7639 N   0  0  0  0  0  0  0  0  0  0  0  0
    5.8892    0.3849   15.5063 C   0  0  0  0  0  0  0  0  0  0  0  0
    5.5685   -0.5086   16.5164 C   0  0  0  0  0  0  0  0  0  0  0  0
    4.3789   -1.0573   16.3969 N   0  0  0  0  0  0  0  0  0  0  0  0
    3.8296   -0.4147   15.3237 C   0  0  0  0  0  0  0  0  0  0  0  0
    2.6553    2.1548   12.1371 C   0  0  0  0  0  0  0  0  0  0  0  0
    3.5598    2.6285   11.1702 C   0  0  0  0  0  0  0  0  0  0  0  0
    3.1281    3.4506   10.1312 C   0  0  0  0  0  0  0  0  0  0  0  0
    1.7842    3.8045   10.0275 C   0  0  0  0  0  0  0  0  0  0  0  0
    0.9624    4.5821    9.1482 C   0  0  0  0  0  0  0  0  0  0  0  0
   -0.2906    4.5875    9.5419 N   0  0  0  0  0  0  0  0  0  0  0  0
   -0.3300    3.9244   10.5754 N   0  0  0  0  0  0  0  0  0  0  0  0
    0.8650    3.3720   10.9873 C   0  0  0  0  0  0  0  0  0  0  0  0
    1.3091    2.5556   12.0371 C   0  0  0  0  0  0  0  0  0  0  0  0
   -0.5664   -0.8273   14.2156 C   0  0  0  0  0  0  0  0  0  0  0  0
   -1.9390   -1.0796   14.0607 C   0  0  0  0  0  0  0  0  0  0  0  0
   -6.4712   -3.2986   15.1585 H   0  0  0  0  0  0  0  0  0  0  0  0
   -7.1396   -3.8141   13.6128 H   0  0  0  0  0  0  0  0  0  0  0  0
   -7.5381   -2.2297   14.2720 H   0  0  0  0  0  0  0  0  0  0  0  0
   -5.0797   -1.9648   11.6228 H   0  0  0  0  0  0  0  0  0  0  0  0
   -4.3369   -0.5132   13.6163 H   0  0  0  0  0  0  0  0  0  0  0  0
   -5.3364   -0.8825   15.0879 H   0  0  0  0  0  0  0  0  0  0  0  0
   -4.4631   -4.2481   13.7733 H   0  0  0  0  0  0  0  0  0  0  0  0
   -3.6310   -3.1461   12.6040 H   0  0  0  0  0  0  0  0  0  0  0  0
   -2.2032   -3.6606   16.2520 H   0  0  0  0  0  0  0  0  0  0  0  0
    0.1811   -3.2182   16.4951 H   0  0  0  0  0  0  0  0  0  0  0  0
    2.0071   -1.8406   16.0859 H   0  0  0  0  0  0  0  0  0  0  0  0
    5.1968    1.9655   13.3457 H   0  0  0  0  0  0  0  0  0  0  0  0
    6.7769    0.9389   15.2344 H   0  0  0  0  0  0  0  0  0  0  0  0
    6.1680   -0.8012   17.3709 H   0  0  0  0  0  0  0  0  0  0  0  0
    4.6004    2.3540   11.2240 H   0  0  0  0  0  0  0  0  0  0  0  0
    3.8394    3.8037    9.4025 H   0  0  0  0  0  0  0  0  0  0  0  0
    1.2419    5.1151    8.2504 H   0  0  0  0  0  0  0  0  0  0  0  0
   -1.2014    3.8141   11.0685 H   0  0  0  0  0  0  0  0  0  0  0  0
    0.5959    2.2602   12.7907 H   0  0  0  0  0  0  0  0  0  0  0  0
   -0.1233   -0.0345   13.6228 H   0  0  0  0  0  0  0  0  0  0  0  0
   -2.5397   -0.4983   13.3759 H   0  0  0  0  0  0  0  0  0  0  0  0
  1  2  1  0
  1 32  1  0
  1 33  1  0
  1 34  1  0
  2  3  1  0
  2  4  1  0
  2  6  1  0
  3 35  1  0
  4  5  1  0
  4 36  1  0
  4 37  1  0
  5  6  1  0
  5  7  1  0
  6 38  1  0
  6 39  1  0
  7  8  2  0
  7 31  1  0
  8  9  1  0
  8 40  1  0
  9 10  2  0
  9 41  1  0
 10 11  1  0
 10 30  1  0
 11 12  1  0
 11 42  1  0
 12 13  2  0
 12 20  1  0
 13 14  1  0
 14 15  2  0
 14 21  1  0
 15 16  1  0
 15 43  1  0
 16 17  1  0
 16 20  1  0
 17 18  2  0
 17 44  1  0
 18 19  1  0
 18 45  1  0
 19 20  2  0
 21 22  2  0
 21 29  1  0
 22 23  1  0
 22 46  1  0
 23 24  2  0
 23 47  1  0
 24 25  1  0
 24 28  1  0
 25 26  2  0
 25 48  1  0
 26 27  1  0
 27 28  1  0
 27 49  1  0
 28 29  2  0
 29 50  1  0
 30 31  2  0
 30 51  1  0
 31 52  1  0
M  END
>  <s_m_entry_id>  (1) 
2042

>  <IC50[nM]>  (1) 
3.9

>  <s_m_Source_Path>  (1) 
/projects/mai/users/kmzp800_harry/pmx_colab/docking_jobs/syk

>  <s_m_Source_File>  (1) 
tnks2_lig.sdf

>  <i_m_Source_File_Index>  (1) 
34

>  <s_m_job_name>  (1) 
glide-dock_SP_syk_single_compound_mcs_8

>  <r_i_docking_score>  (1) 
-9.29452705383301

>  <r_i_glide_gscore>  (1) 
-9.29452705383301

>  <r_i_glide_emodel>  (1) 
-37.266040802002

>  <index_string>  (1) 
42:0:0

$$$$
