20:0:0
     RDKit          3D

 43 46  0  0  1  0  0  0  0  0999 V2000
   33.3960   35.6420   19.9460 C   0  0  0  0  0  0  0  0  0  0  0  0
   33.3490   36.9250   20.5020 C   0  0  0  0  0  0  0  0  0  0  0  0
   33.0870   37.0820   21.8570 C   0  0  0  0  0  0  0  0  0  0  0  0
   33.0410   38.3440   22.4410 C   0  0  0  0  0  0  0  0  0  0  0  0
   32.7830   38.4620   23.7700 N   0  0  0  0  0  0  0  0  0  0  0  0
   32.5680   37.3630   24.5450 C   0  0  0  0  0  0  0  0  0  0  0  0
   32.2960   37.4990   25.9410 N   0  0  0  0  0  0  0  0  0  0  0  0
   32.6080   36.1230   23.9890 N   0  0  0  0  0  0  0  0  0  0  0  0
   32.8620   35.9510   22.6610 C   0  0  0  0  0  0  0  0  0  0  0  0
   32.8990   34.7000   22.1070 N   0  0  0  0  0  0  0  0  0  0  0  0
   32.6590   33.5290   22.9460 C   0  0  0  0  0  0  0  0  0  0  0  0
   33.1560   34.5310   20.7710 C   0  0  0  0  0  0  0  0  0  0  0  0
   33.1820   33.3740   20.2690 O   0  0  0  0  0  0  0  0  0  0  0  0
   32.2630   38.7890   26.6160 C   0  0  0  0  0  0  0  0  0  0  0  0
   31.4240   38.6810   27.8680 C   0  0  0  0  0  0  0  0  0  0  0  0
   32.0930   39.3360   28.9110 O   0  0  0  0  0  0  0  0  0  0  0  0
   33.4570   39.1770   28.6280 C   0  0  0  0  0  0  0  0  0  0  0  0
   33.6290   39.1420   27.1280 C   0  0  0  0  0  0  0  0  0  0  0  0
   33.6350   35.4470   18.5760 O   0  0  0  0  0  0  0  0  0  0  0  0
   37.2700   35.9560   18.1710 C   0  0  0  0  0  0  0  0  0  0  0  0
   36.0040   35.8290   18.7480 C   0  0  0  0  0  0  0  0  0  0  0  0
   34.8850   35.5560   17.9540 C   0  0  0  0  0  0  0  0  0  0  0  0
   35.0420   35.4450   16.5570 C   0  0  0  0  0  0  0  0  0  0  0  0
   33.9690   35.2680   15.7470 F   0  0  0  0  0  0  0  0  0  0  0  0
   36.3090   35.5750   15.9830 C   0  0  0  0  0  0  0  0  0  0  0  0
   37.4240   35.8200   16.7890 C   0  0  0  0  0  0  0  0  0  0  0  0
   38.6510   35.9430   16.2280 F   0  0  0  0  0  0  0  0  0  0  0  0
   33.5191   37.8073   19.8675 H   0  0  0  0  0  0  0  0  0  0  0  0
   33.2127   39.2422   21.8297 H   0  0  0  0  0  0  0  0  0  0  0  0
   32.1156   36.6486   26.4934 H   0  0  0  0  0  0  0  0  0  0  0  0
   32.7184   33.8187   24.0055 H   0  0  0  0  0  0  0  0  0  0  0  0
   31.6591   33.1235   22.7322 H   0  0  0  0  0  0  0  0  0  0  0  0
   33.4188   32.7628   22.7322 H   0  0  0  0  0  0  0  0  0  0  0  0
   31.8779   39.5256   25.8956 H   0  0  0  0  0  0  0  0  0  0  0  0
   30.4452   39.1541   27.7004 H   0  0  0  0  0  0  0  0  0  0  0  0
   31.2682   37.6232   28.1265 H   0  0  0  0  0  0  0  0  0  0  0  0
   34.0248   40.0204   29.0479 H   0  0  0  0  0  0  0  0  0  0  0  0
   33.8304   38.2435   29.0742 H   0  0  0  0  0  0  0  0  0  0  0  0
   34.3655   38.3789   26.8363 H   0  0  0  0  0  0  0  0  0  0  0  0
   34.0014   40.0938   26.7215 H   0  0  0  0  0  0  0  0  0  0  0  0
   38.1452   36.1630   18.8044 H   0  0  0  0  0  0  0  0  0  0  0  0
   35.8861   35.9446   19.8355 H   0  0  0  0  0  0  0  0  0  0  0  0
   36.4293   35.4842   14.8934 H   0  0  0  0  0  0  0  0  0  0  0  0
  1  2  2  0
  1 12  1  0
  1 19  1  0
  2  3  1  0
  3  4  2  0
  3  9  1  0
  4  5  1  0
  5  6  2  0
  6  7  1  0
  6  8  1  0
  7 14  1  0
  8  9  2  0
  9 10  1  0
 10 11  1  0
 10 12  1  0
 12 13  2  0
 14 18  1  0
 14 15  1  0
 15 16  1  0
 16 17  1  0
 17 18  1  0
 19 22  1  0
 20 21  2  0
 20 26  1  0
 21 22  1  0
 22 23  2  0
 23 24  1  0
 23 25  1  0
 25 26  2  0
 26 27  1  0
  2 28  1  0
  4 29  1  0
  7 30  1  0
 11 31  1  0
 11 32  1  0
 11 33  1  0
 14 34  1  0
 15 35  1  0
 15 36  1  0
 17 37  1  0
 17 38  1  0
 18 39  1  0
 18 40  1  0
 20 41  1  0
 21 42  1  0
 25 43  1  0
M  END
>  <s_m_entry_id>  (1) 
70

>  <MODEL>  (1) 
1

>  <REMARK>  (1) 
 VINA RESULT:   -11.537      0.000      0.000
 INTER + INTRA:         -10.047
 INTER:                  -9.590
 INTRA:                  -0.457
 UNBOUND:                 3.513
  Name = /scratch/kmzp800/tmp3xapxw_h/tmpka87gmtv.pdb
  4 active torsions:
  status: ('A' for Active; 'I' for Inactive)
    1  A    between atoms: C3_3  and  O1_4
    2  A    between atoms: O1_4  and  C4_5
    3  A    between atoms: N2_11  and  C9_12
    4  A    between atoms: N4_19  and  C14_20
                            x       y       z     vdW  Elec       q    Type
                         _______ _______ _______ _____ _____    ______ ____

>  <TORSDO>  (1) 
F 3

>  <grid_id>  (1) 
p38-prepared

>  <grid_path>  (1) 
/projects/mai/users/kmzp800_harry/pmx_colab/docking_jobs/p38/vina_docking/input_files/p38_vina.pdbqt

>  <grid_filename>  (1) 
p38_vina.pdbqt

>  <docking_score>  (1) 
-11.537

>  <compound_name>  (1) 
lig_p38a_2x

>  <index_string>  (1) 
20:0:0

$$$$
