2:0:0
     RDKit          3D

 42 44  0  0  1  0  0  0  0  0999 V2000
   42.4840    8.9950   16.7730 C   0  0  0  0  0  0  0  0  0  0  0  0
   42.8910   10.3210   16.5980 C   0  0  0  0  0  0  0  0  0  0  0  0
   41.9610   11.3200   16.2820 C   0  0  0  0  0  0  0  0  0  0  0  0
   40.6150   10.9580   16.1290 C   0  0  0  0  0  0  0  0  0  0  0  0
   40.1950    9.6330   16.3060 C   0  0  0  0  0  0  0  0  0  0  0  0
   41.1370    8.6530   16.6300 C   0  0  0  0  0  0  0  0  0  0  0  0
   42.3580   12.7360   16.0890 C   0  0  0  0  0  0  0  0  0  0  0  0
   43.3960   13.5510   17.1370 S   0  0  0  0  0  0  0  0  0  0  0  0
   43.4080   15.0140   16.3230 C   0  0  0  0  0  0  0  0  0  0  0  0
   42.5890   14.9060   15.2010 C   0  0  0  0  0  0  0  0  0  0  0  0
   42.0030   13.6190   15.0520 C   0  0  0  0  0  0  0  0  0  0  0  0
   40.9640   13.0850   13.5220 Br  0  0  0  0  0  0  0  0  0  0  0  0
   44.1650   16.2010   16.7520 C   0  0  0  0  0  0  0  0  0  0  0  0
   44.1080   16.5840   17.9500 O   0  0  0  0  0  0  0  0  0  0  0  0
   44.9460   16.9090   15.8470 O   0  0  0  0  0  0  0  0  0  0  0  0
   42.4170   16.0000   14.3400 O   0  0  0  0  0  0  0  0  0  0  0  0
   41.3160   16.8940   14.3790 C   0  0  0  0  0  0  0  0  0  0  0  0
   40.8250   17.1370   12.9970 C   0  0  0  0  0  0  0  0  0  0  0  0
   41.2660   16.4460   12.0430 O   0  0  0  0  0  0  0  0  0  0  0  0
   39.9120   18.1530   12.7540 O   0  0  0  0  0  0  0  0  0  0  0  0
   38.8200    9.2660   16.1710 N   0  0  0  0  0  0  0  0  0  0  0  0
   37.7130    9.1770   17.5040 S   0  0  0  0  0  0  0  0  0  0  0  0
   38.0970   10.2070   18.5290 O   0  0  0  0  0  0  0  0  0  0  0  0
   36.3220    9.4640   17.0160 O   0  0  0  0  0  0  0  0  0  0  0  0
   37.7490    7.5720   18.2150 C   0  0  0  0  0  0  0  0  0  0  0  0
   36.6240    7.0700   18.8800 C   0  0  0  0  0  0  0  0  0  0  0  0
   36.6660    5.8050   19.4730 C   0  0  0  0  0  0  0  0  0  0  0  0
   37.8330    5.0390   19.4020 C   0  0  0  0  0  0  0  0  0  0  0  0
   37.8750    3.8140   19.9770 F   0  0  0  0  0  0  0  0  0  0  0  0
   38.9570    5.5380   18.7380 C   0  0  0  0  0  0  0  0  0  0  0  0
   38.9160    6.8040   18.1450 C   0  0  0  0  0  0  0  0  0  0  0  0
   43.2244    8.2209   17.0233 H   0  0  0  0  0  0  0  0  0  0  0  0
   43.9535   10.5829   16.7097 H   0  0  0  0  0  0  0  0  0  0  0  0
   39.8753   11.7282   15.8652 H   0  0  0  0  0  0  0  0  0  0  0  0
   40.8173    7.6102   16.7727 H   0  0  0  0  0  0  0  0  0  0  0  0
   40.5084   16.4548   14.9830 H   0  0  0  0  0  0  0  0  0  0  0  0
   41.6334   17.8468   14.8279 H   0  0  0  0  0  0  0  0  0  0  0  0
   38.4667    9.0419   15.2298 H   0  0  0  0  0  0  0  0  0  0  0  0
   35.7052    7.6723   18.9359 H   0  0  0  0  0  0  0  0  0  0  0  0
   35.7811    5.4125   19.9953 H   0  0  0  0  0  0  0  0  0  0  0  0
   39.8749    4.9344   18.6817 H   0  0  0  0  0  0  0  0  0  0  0  0
   39.8017    7.1958   17.6234 H   0  0  0  0  0  0  0  0  0  0  0  0
  1  2  2  0
  1  6  1  0
  1 32  1  0
  2  3  1  0
  2 33  1  0
  3  4  2  0
  3  7  1  0
  4  5  1  0
  4 34  1  0
  5  6  2  0
  5 21  1  0
  6 35  1  0
  7  8  1  0
  7 11  2  0
  8  9  1  0
  9 13  1  0
  9 10  2  0
 10 11  1  0
 10 16  1  0
 11 12  1  0
 13 14  1  0
 13 15  2  0
 16 17  1  0
 17 18  1  0
 17 36  1  0
 17 37  1  0
 18 19  2  0
 18 20  1  0
 21 22  1  0
 21 38  1  0
 22 25  1  0
 22 23  2  0
 22 24  2  0
 25 26  2  0
 25 31  1  0
 26 27  1  0
 26 39  1  0
 27 28  2  0
 27 40  1  0
 28 29  1  0
 28 30  1  0
 30 31  2  0
 30 41  1  0
 31 42  1  0
M  CHG  2  14  -1  20  -1
M  END
>  <s_m_entry_id>  (1) 
1219

>  <MODEL>  (1) 
17

>  <REMARK>  (1) 
 VINA RESULT:    -6.322      2.766      3.072
 INTER + INTRA:         -10.417
 INTER:                  -9.764
 INTRA:                  -0.653
 UNBOUND:                -1.139
  Name = /scratch/kmzp800/tmpbh_nrxpm/tmpodznam4a.pdb
  8 active torsions:
  status: ('A' for Active; 'I' for Inactive)
    1  A    between atoms: C3_3  and  C4_4
    2  A    between atoms: C5_6  and  C6_7
    3  A    between atoms: C7_10  and  O3_11
    4  A    between atoms: O3_11  and  C8_12
    5  A    between atoms: C8_12  and  C9_13
    6  A    between atoms: C12_19  and  N1_20
    7  A    between atoms: N1_20  and  S2_21
    8  A    between atoms: S2_21  and  C13_24
                            x       y       z     vdW  Elec       q    Type
                         _______ _______ _______ _____ _____    ______ ____

>  <TORSDO>  (1) 
F 8

>  <grid_id>  (1) 
ptp1b-prepared

>  <grid_path>  (1) 
ptp1b_vina.pdbqt

>  <grid_filename>  (1) 
ptp1b_vina.pdbqt

>  <docking_score>  (1) 
-6.322

>  <compound_name>  (1) 
lig_23472

>  <index_string>  (1) 
2:0:0

>  <s_m_Source_Path>  (1) 
/projects/mai/users/kmzp800_harry/pmx_colab/docking_jobs/ptp1b

>  <s_m_Source_File>  (1) 
ptp1b_confs_vina_mcs.sdf

>  <i_m_Source_File_Index>  (1) 
3

$$$$
