6:0:0
     RDKit          3D

 48 50  0  0  1  0  0  0  0  0999 V2000
   42.3350    9.0500   16.8930 C   0  0  0  0  0  0  0  0  0  0  0  0
   42.7070   10.3910   16.7740 C   0  0  0  0  0  0  0  0  0  0  0  0
   41.9310   11.2870   16.0220 C   0  0  0  0  0  0  0  0  0  0  0  0
   40.7820   10.8040   15.3810 C   0  0  0  0  0  0  0  0  0  0  0  0
   40.4010    9.4590   15.4940 C   0  0  0  0  0  0  0  0  0  0  0  0
   41.1840    8.5860   16.2530 C   0  0  0  0  0  0  0  0  0  0  0  0
   42.3650   12.7000   15.8870 C   0  0  0  0  0  0  0  0  0  0  0  0
   43.3710   13.4650   17.0020 S   0  0  0  0  0  0  0  0  0  0  0  0
   43.4330   14.9540   16.2380 C   0  0  0  0  0  0  0  0  0  0  0  0
   42.6670   14.8920   15.0760 C   0  0  0  0  0  0  0  0  0  0  0  0
   42.0480   13.6270   14.8760 C   0  0  0  0  0  0  0  0  0  0  0  0
   40.7880   13.2620   13.4670 Br  0  0  0  0  0  0  0  0  0  0  0  0
   44.1900   16.1150   16.7330 C   0  0  0  0  0  0  0  0  0  0  0  0
   44.1020   16.4560   17.9410 O   0  0  0  0  0  0  0  0  0  0  0  0
   45.0070   16.8440   15.8790 O   0  0  0  0  0  0  0  0  0  0  0  0
   42.5520   16.0110   14.2400 O   0  0  0  0  0  0  0  0  0  0  0  0
   41.5350   16.9950   14.3420 C   0  0  0  0  0  0  0  0  0  0  0  0
   40.9750   17.2740   12.9940 C   0  0  0  0  0  0  0  0  0  0  0  0
   41.7340   17.3100   11.9910 O   0  0  0  0  0  0  0  0  0  0  0  0
   39.6200   17.5400   12.8470 O   0  0  0  0  0  0  0  0  0  0  0  0
   39.2260    8.9550   14.8440 N   0  0  0  0  0  0  0  0  0  0  0  0
   38.9770    7.5530   14.5190 C   0  0  0  0  0  0  0  0  0  0  0  0
   39.7090    7.1550   13.2280 C   0  0  0  0  0  0  0  0  0  0  0  0
   39.2640    5.8180   12.6300 C   0  0  0  0  0  0  0  0  0  0  0  0
   39.2710    4.6610   13.6350 C   0  0  0  0  0  0  0  0  0  0  0  0
   38.2940    4.8340   14.8090 C   0  0  0  0  0  0  0  0  0  0  0  0
   37.1160    5.7530   14.4780 C   0  0  0  0  0  0  0  0  0  0  0  0
   37.4710    7.2480   14.5400 C   0  0  0  0  0  0  0  0  0  0  0  0
   42.9485    8.3597   17.4906 H   0  0  0  0  0  0  0  0  0  0  0  0
   43.6184   10.7490   17.2752 H   0  0  0  0  0  0  0  0  0  0  0  0
   40.1689   11.4912   14.7794 H   0  0  0  0  0  0  0  0  0  0  0  0
   40.8928    7.5294   16.3468 H   0  0  0  0  0  0  0  0  0  0  0  0
   40.7352   16.6279   15.0020 H   0  0  0  0  0  0  0  0  0  0  0  0
   41.9612   17.9193   14.7592 H   0  0  0  0  0  0  0  0  0  0  0  0
   38.4988    9.6371   14.5854 H   0  0  0  0  0  0  0  0  0  0  0  0
   39.4064    6.9054   15.2976 H   0  0  0  0  0  0  0  0  0  0  0  0
   39.5349    7.9411   12.4785 H   0  0  0  0  0  0  0  0  0  0  0  0
   40.7702    7.0401   13.4938 H   0  0  0  0  0  0  0  0  0  0  0  0
   38.2415    5.9344   12.2416 H   0  0  0  0  0  0  0  0  0  0  0  0
   39.9862    5.5626   11.8406 H   0  0  0  0  0  0  0  0  0  0  0  0
   39.0048    3.7380   13.0990 H   0  0  0  0  0  0  0  0  0  0  0  0
   40.2811    4.6284   14.0693 H   0  0  0  0  0  0  0  0  0  0  0  0
   37.8998    3.8449   15.0853 H   0  0  0  0  0  0  0  0  0  0  0  0
   38.8520    5.2998   15.6347 H   0  0  0  0  0  0  0  0  0  0  0  0
   36.7666    5.5195   13.4614 H   0  0  0  0  0  0  0  0  0  0  0  0
   36.3400    5.5720   15.2364 H   0  0  0  0  0  0  0  0  0  0  0  0
   37.0508    7.6615   15.4687 H   0  0  0  0  0  0  0  0  0  0  0  0
   37.0494    7.7048   13.6325 H   0  0  0  0  0  0  0  0  0  0  0  0
  1  2  2  0
  1  6  1  0
  1 29  1  0
  2  3  1  0
  2 30  1  0
  3  4  2  0
  3  7  1  0
  4  5  1  0
  4 31  1  0
  5  6  2  0
  5 21  1  0
  6 32  1  0
  7  8  1  0
  7 11  2  0
  8  9  1  0
  9 13  1  0
  9 10  2  0
 10 11  1  0
 10 16  1  0
 11 12  1  0
 13 14  1  0
 13 15  2  0
 16 17  1  0
 17 18  1  0
 17 33  1  0
 17 34  1  0
 18 19  2  0
 18 20  1  0
 21 22  1  0
 21 35  1  0
 22 28  1  0
 22 23  1  0
 22 36  1  0
 23 24  1  0
 23 37  1  0
 23 38  1  0
 24 25  1  0
 24 39  1  0
 24 40  1  0
 25 26  1  0
 25 41  1  0
 25 42  1  0
 26 27  1  0
 26 43  1  0
 26 44  1  0
 27 28  1  0
 27 45  1  0
 27 46  1  0
 28 47  1  0
 28 48  1  0
M  CHG  2  14  -1  20  -1
M  END
>  <s_m_entry_id>  (1) 
1352

>  <MODEL>  (1) 
1

>  <REMARK>  (1) 
 VINA RESULT:    -7.667      0.000      0.000
 INTER + INTRA:         -11.201
 INTER:                 -10.804
 INTRA:                  -0.397
 UNBOUND:                -0.397
  Name = /scratch/kmzp800/tmp3oi0ufpr/tmp5tjrireo.pdb
  7 active torsions:
  status: ('A' for Active; 'I' for Inactive)
    1  A    between atoms: C3_3  and  C4_4
    2  A    between atoms: C5_6  and  C6_7
    3  A    between atoms: C7_10  and  O3_11
    4  A    between atoms: O3_11  and  C8_12
    5  A    between atoms: C8_12  and  C9_13
    6  A    between atoms: C12_19  and  N1_20
    7  A    between atoms: N1_20  and  C13_21
                            x       y       z     vdW  Elec       q    Type
                         _______ _______ _______ _____ _____    ______ ____

>  <TORSDO>  (1) 
F 7

>  <grid_id>  (1) 
ptp1b-prepared

>  <grid_path>  (1) 
ptp1b_vina.pdbqt

>  <grid_filename>  (1) 
ptp1b_vina.pdbqt

>  <docking_score>  (1) 
-7.667

>  <compound_name>  (1) 
lig_23476

>  <index_string>  (1) 
6:0:0

>  <s_m_Source_Path>  (1) 
/projects/mai/users/kmzp800_harry/pmx_colab/docking_jobs/ptp1b/vina_prep

>  <s_m_Source_File>  (1) 
ptp1b_vina_naive_confs.sdf

>  <i_m_Source_File_Index>  (1) 
7

$$$$
