4:0:0
     RDKit          3D

 45 47  0  0  1  0  0  0  0  0999 V2000
   38.1512   35.6193   15.4891 F   0  0  0  0  0  0  0  0  0  0  0  0
   37.1057   35.5806   16.3347 C   0  0  0  0  0  0  0  0  0  0  0  0
   35.8409   35.1604   15.8891 C   0  0  0  0  0  0  0  0  0  0  0  0
   34.7513   35.1493   16.7733 C   0  0  0  0  0  0  0  0  0  0  0  0
   33.5410   34.7500   16.3212 F   0  0  0  0  0  0  0  0  0  0  0  0
   34.9152   35.5493   18.1152 C   0  0  0  0  0  0  0  0  0  0  0  0
   36.2006   35.9493   18.5638 C   0  0  0  0  0  0  0  0  0  0  0  0
   37.2912   35.9495   17.6757 C   0  0  0  0  0  0  0  0  0  0  0  0
   33.8026   35.5176   18.9238 O   0  0  0  0  0  0  0  0  0  0  0  0
   33.8888   36.0563   20.1749 C   0  0  0  0  0  0  0  0  0  0  0  0
   33.7863   37.3883   20.3340 C   0  0  0  0  0  0  0  0  0  0  0  0
   34.1405   35.1508   21.2996 C   0  0  0  0  0  0  0  0  0  0  0  0
   34.3496   33.9493   21.1189 O   0  0  0  0  0  0  0  0  0  0  0  0
   34.1780   35.7196   22.5395 N   0  0  0  0  0  0  0  0  0  0  0  0
   34.4040   34.8553   23.7103 C   0  0  0  0  0  0  0  0  0  0  0  0
   34.0739   37.1359   22.7588 C   0  0  0  0  0  0  0  0  0  0  0  0
   33.9130   37.9892   21.6494 C   0  0  0  0  0  0  0  0  0  0  0  0
   34.1488   37.6756   23.9900 N   0  0  0  0  0  0  0  0  0  0  0  0
   34.1073   38.9981   24.1236 C   0  0  0  0  0  0  0  0  0  0  0  0
   34.0285   39.8832   23.1314 N   0  0  0  0  0  0  0  0  0  0  0  0
   33.9122   39.3783   21.8854 C   0  0  0  0  0  0  0  0  0  0  0  0
   34.1535   39.5287   25.3987 N   0  0  0  0  0  0  0  0  0  0  0  0
   34.1596   38.8080   26.6798 C   0  0  0  0  0  0  0  0  0  0  0  0
   32.8168   38.0775   26.9080 C   0  0  0  0  0  0  0  0  0  0  0  0
   35.3236   37.7959   26.7836 C   0  0  0  0  0  0  0  0  0  0  0  0
   34.4122   39.8354   27.8010 C   0  0  0  0  0  0  0  0  0  0  0  0
   33.3511   40.7486   27.8954 O   0  0  0  0  0  0  0  0  0  0  0  0
   35.6898   34.8405   14.8712 H   0  0  0  0  0  0  0  0  0  0  0  0
   36.3750   36.2570   19.5840 H   0  0  0  0  0  0  0  0  0  0  0  0
   38.2677   36.2639   18.0169 H   0  0  0  0  0  0  0  0  0  0  0  0
   33.6077   38.0351   19.4892 H   0  0  0  0  0  0  0  0  0  0  0  0
   34.0881   33.8223   23.5568 H   0  0  0  0  0  0  0  0  0  0  0  0
   35.4630   34.8473   23.9688 H   0  0  0  0  0  0  0  0  0  0  0  0
   33.8491   35.2058   24.5810 H   0  0  0  0  0  0  0  0  0  0  0  0
   33.8188   40.0873   21.0759 H   0  0  0  0  0  0  0  0  0  0  0  0
   34.1069   40.5395   25.4543 H   0  0  0  0  0  0  0  0  0  0  0  0
   32.7777   37.6282   27.9008 H   0  0  0  0  0  0  0  0  0  0  0  0
   31.9674   38.7571   26.8241 H   0  0  0  0  0  0  0  0  0  0  0  0
   32.6610   37.2754   26.1868 H   0  0  0  0  0  0  0  0  0  0  0  0
   35.3522   37.3572   27.7815 H   0  0  0  0  0  0  0  0  0  0  0  0
   35.2376   36.9534   26.1009 H   0  0  0  0  0  0  0  0  0  0  0  0
   36.2838   38.2776   26.6008 H   0  0  0  0  0  0  0  0  0  0  0  0
   35.3425   40.3828   27.6409 H   0  0  0  0  0  0  0  0  0  0  0  0
   34.5006   39.3364   28.7673 H   0  0  0  0  0  0  0  0  0  0  0  0
   33.4134   41.3703   27.1775 H   0  0  0  0  0  0  0  0  0  0  0  0
  1  2  1  0
  2  8  2  0
  2  3  1  0
  3  4  2  0
  3 28  1  0
  4  5  1  0
  4  6  1  0
  6  7  2  0
  6  9  1  0
  7  8  1  0
  7 29  1  0
  8 30  1  0
  9 10  1  0
 10 11  2  0
 10 12  1  0
 11 17  1  0
 11 31  1  0
 12 13  2  0
 12 14  1  0
 14 15  1  0
 14 16  1  0
 15 32  1  0
 15 33  1  0
 15 34  1  0
 16 17  2  0
 16 18  1  0
 17 21  1  0
 18 19  2  0
 19 20  1  0
 19 22  1  0
 20 21  2  0
 21 35  1  0
 22 23  1  0
 22 36  1  0
 23 24  1  0
 23 25  1  0
 23 26  1  0
 24 37  1  0
 24 38  1  0
 24 39  1  0
 25 40  1  0
 25 41  1  0
 25 42  1  0
 26 27  1  0
 26 43  1  0
 26 44  1  0
 27 45  1  0
M  END
>  <s_m_entry_id>  (1) 
721

>  <i_f3d_flags>  (1) 
0

>  <r_lp_tautomer_probability>  (1) 
1

>  <r_epik_Ionization_Penalty>  (1) 
  0.0000

>  <r_epik_State_Penalty>  (1) 
  0.0000

>  <i_epik_Tot_Q>  (1) 
0

>  <s_m_job_name>  (1) 
glide-dock_SP_p38_all_ligs_no_cons_10_poses

>  <r_i_docking_score>  (1) 
-7.23369293670228

>  <r_i_glide_gscore>  (1) 
-7.23369293670228

>  <r_i_glide_emodel>  (1) 
-53.5069581719282

>  <index_string>  (1) 
4:0:0

$$$$
