18:0:0
     RDKit          3D

 37 38  0  0  1  0  0  0  0  0999 V2000
   42.4240   12.8610   15.6680 C   0  0  0  0  0  0  0  0  0  0  0  0
   43.4970   13.7550   16.6120 S   0  0  0  0  0  0  0  0  0  0  0  0
   43.3610   15.2090   15.7830 C   0  0  0  0  0  0  0  0  0  0  0  0
   42.4730   15.0110   14.7180 C   0  0  0  0  0  0  0  0  0  0  0  0
   41.9340   13.7130   14.6650 C   0  0  0  0  0  0  0  0  0  0  0  0
   40.7020   13.2200   13.2790 Br  0  0  0  0  0  0  0  0  0  0  0  0
   40.6030    9.5260   15.7600 C   0  0  0  0  0  0  0  0  0  0  0  0
   40.8850   10.8710   15.5130 C   0  0  0  0  0  0  0  0  0  0  0  0
   42.1030   11.4340   15.9150 C   0  0  0  0  0  0  0  0  0  0  0  0
   43.0340   10.6190   16.5740 C   0  0  0  0  0  0  0  0  0  0  0  0
   42.7630    9.2670   16.8290 C   0  0  0  0  0  0  0  0  0  0  0  0
   41.5420    8.7270   16.4170 C   0  0  0  0  0  0  0  0  0  0  0  0
   43.7040    8.4180   17.5010 N   0  0  0  0  0  0  0  0  0  0  0  0
   44.2580    8.6180   18.8070 C   0  0  0  0  0  0  0  0  0  0  0  0
   43.9290    9.6080   19.5120 O   0  0  0  0  0  0  0  0  0  0  0  0
   45.2160    7.6200   19.3530 C   0  0  0  0  0  0  0  0  0  0  0  0
   46.3620    8.3290   20.0450 C   0  0  0  0  0  0  0  0  0  0  0  0
   43.9860   16.4630   16.2340 C   0  0  0  0  0  0  0  0  0  0  0  0
   44.5560   16.5090   17.3560 O   0  0  0  0  0  0  0  0  0  0  0  0
   43.8970   17.6200   15.4720 O   0  0  0  0  0  0  0  0  0  0  0  0
   42.1410   15.9660   13.7490 O   0  0  0  0  0  0  0  0  0  0  0  0
   41.1370   16.9570   13.9360 C   0  0  0  0  0  0  0  0  0  0  0  0
   40.3810   17.1710   12.6700 C   0  0  0  0  0  0  0  0  0  0  0  0
   40.9920   17.2120   11.5710 O   0  0  0  0  0  0  0  0  0  0  0  0
   38.9980   17.2890   12.6980 O   0  0  0  0  0  0  0  0  0  0  0  0
   39.6431    9.0962   15.4378 H   0  0  0  0  0  0  0  0  0  0  0  0
   40.1417   11.4960   14.9965 H   0  0  0  0  0  0  0  0  0  0  0  0
   43.9942   11.0477   16.8968 H   0  0  0  0  0  0  0  0  0  0  0  0
   41.3189    7.6675   16.6109 H   0  0  0  0  0  0  0  0  0  0  0  0
   44.0133    7.5777   16.9919 H   0  0  0  0  0  0  0  0  0  0  0  0
   44.6968    6.9741   20.0764 H   0  0  0  0  0  0  0  0  0  0  0  0
   45.6131    7.0106   18.5278 H   0  0  0  0  0  0  0  0  0  0  0  0
   46.2365    8.2514   21.1351 H   0  0  0  0  0  0  0  0  0  0  0  0
   47.3134    7.8614   19.7512 H   0  0  0  0  0  0  0  0  0  0  0  0
   46.3683    9.3890   19.7512 H   0  0  0  0  0  0  0  0  0  0  0  0
   40.4424   16.6263   14.7222 H   0  0  0  0  0  0  0  0  0  0  0  0
   41.6168   17.9019   14.2309 H   0  0  0  0  0  0  0  0  0  0  0  0
  1  9  1  0
  1  2  1  0
  1  5  2  0
  2  3  1  0
  3 18  1  0
  3  4  2  0
  4  5  1  0
  4 21  1  0
  5  6  1  0
  7 12  2  0
  7  8  1  0
  7 26  1  0
  8  9  2  0
  8 27  1  0
  9 10  1  0
 10 11  2  0
 10 28  1  0
 11 13  1  0
 11 12  1  0
 12 29  1  0
 13 14  1  0
 13 30  1  0
 14 16  1  0
 14 15  2  0
 16 17  1  0
 16 31  1  0
 16 32  1  0
 17 33  1  0
 17 34  1  0
 17 35  1  0
 18 19  1  0
 18 20  2  0
 21 22  1  0
 22 23  1  0
 22 36  1  0
 22 37  1  0
 23 25  1  0
 23 24  2  0
M  CHG  2  19  -1  25  -1
M  END
>  <s_m_entry_id>  (1) 
1364

>  <MODEL>  (1) 
1

>  <REMARK>  (1) 
 VINA RESULT:    -7.409      0.000      0.000
 INTER + INTRA:         -10.526
 INTER:                 -10.441
 INTRA:                  -0.084
 UNBOUND:                -0.084
  Name = /scratch/kmzp800/tmp2tbdfea3/tmps4i16jvs.pdb
  8 active torsions:
  status: ('A' for Active; 'I' for Inactive)
    1  A    between atoms: C3_3  and  C4_4
    2  A    between atoms: C5_6  and  C6_7
    3  A    between atoms: C7_10  and  O3_11
    4  A    between atoms: O3_11  and  C8_12
    5  A    between atoms: C8_12  and  C9_13
    6  A    between atoms: C12_19  and  N1_20
    7  A    between atoms: C13_21  and  C14_23
    8  A    between atoms: C14_23  and  C15_24
                            x       y       z     vdW  Elec       q    Type
                         _______ _______ _______ _____ _____    ______ ____

>  <TORSDO>  (1) 
F 7

>  <grid_id>  (1) 
ptp1b-prepared

>  <grid_path>  (1) 
ptp1b_vina.pdbqt

>  <grid_filename>  (1) 
ptp1b_vina.pdbqt

>  <docking_score>  (1) 
-7.409

>  <compound_name>  (1) 
lig_23468

>  <index_string>  (1) 
18:0:0

>  <s_m_Source_Path>  (1) 
/projects/mai/users/kmzp800_harry/pmx_colab/docking_jobs/ptp1b/vina_prep

>  <s_m_Source_File>  (1) 
ptp1b_vina_naive_confs.sdf

>  <i_m_Source_File_Index>  (1) 
19

$$$$
