4:0:0
     RDKit          3D

 43 45  0  0  1  0  0  0  0  0999 V2000
   41.3882   17.4858   11.8195 O   0  0  0  0  0  0  0  0  0  0  0  0
   40.5944   17.3596   12.7834 C   0  0  0  0  0  0  0  0  0  0  0  0
   39.4594   17.8865   12.8324 O   0  0  0  0  0  0  0  0  0  0  0  0
   41.0222   16.5286   14.0009 C   0  0  0  0  0  0  0  0  0  0  0  0
   42.1887   15.7545   13.7337 O   0  0  0  0  0  0  0  0  0  0  0  0
   42.5544   14.9400   14.7515 C   0  0  0  0  0  0  0  0  0  0  0  0
   42.1482   13.5885   14.8901 C   0  0  0  0  0  0  0  0  0  0  0  0
   40.9835   12.8149   13.6346 Br  0  0  0  0  0  0  0  0  0  0  0  0
   42.6041   12.9252   15.9980 C   0  0  0  0  0  0  0  0  0  0  0  0
   43.6333   13.9807   16.9153 S   0  0  0  0  0  0  0  0  0  0  0  0
   43.3709   15.2978   15.7889 C   0  0  0  0  0  0  0  0  0  0  0  0
   44.0134   16.5630   16.1135 C   0  0  0  0  0  0  0  0  0  0  0  0
   43.9715   17.5016   15.2929 O   0  0  0  0  0  0  0  0  0  0  0  0
   44.5840   16.6863   17.2148 O   0  0  0  0  0  0  0  0  0  0  0  0
   42.3470   11.5697   16.4796 C   0  0  0  0  0  0  0  0  0  0  0  0
   43.3840   10.8050   17.0508 C   0  0  0  0  0  0  0  0  0  0  0  0
   43.1472    9.4968   17.5060 C   0  0  0  0  0  0  0  0  0  0  0  0
   41.8663    8.9330   17.3788 C   0  0  0  0  0  0  0  0  0  0  0  0
   40.8135    9.6709   16.7988 C   0  0  0  0  0  0  0  0  0  0  0  0
   41.0637   10.9909   16.3753 C   0  0  0  0  0  0  0  0  0  0  0  0
   39.5232    9.1671   16.5818 N   0  0  0  0  0  0  0  0  0  0  0  0
   39.2560    7.7347   16.5287 C   0  0  0  0  0  0  0  0  0  0  0  0
   37.7381    7.5005   16.4804 C   0  0  0  0  0  0  0  0  0  0  0  0
   37.4128    6.0114   16.2890 C   0  0  0  0  0  0  0  0  0  0  0  0
   38.0366    5.5363   15.1009 O   0  0  0  0  0  0  0  0  0  0  0  0
   39.4559    5.6027   15.1703 C   0  0  0  0  0  0  0  0  0  0  0  0
   39.9043    7.0682   15.2990 C   0  0  0  0  0  0  0  0  0  0  0  0
   41.2044   17.2061   14.8363 H   0  0  0  0  0  0  0  0  0  0  0  0
   40.1957   15.8770   14.2892 H   0  0  0  0  0  0  0  0  0  0  0  0
   44.3743   11.2235   17.1390 H   0  0  0  0  0  0  0  0  0  0  0  0
   43.9481    8.9206   17.9449 H   0  0  0  0  0  0  0  0  0  0  0  0
   41.7097    7.9225   17.7241 H   0  0  0  0  0  0  0  0  0  0  0  0
   40.2516   11.5655   15.9542 H   0  0  0  0  0  0  0  0  0  0  0  0
   38.9406    9.7309   15.9794 H   0  0  0  0  0  0  0  0  0  0  0  0
   39.6364    7.2654   17.4364 H   0  0  0  0  0  0  0  0  0  0  0  0
   37.2716    7.8675   17.3953 H   0  0  0  0  0  0  0  0  0  0  0  0
   37.3001    8.0649   15.6555 H   0  0  0  0  0  0  0  0  0  0  0  0
   37.7388    5.4248   17.1499 H   0  0  0  0  0  0  0  0  0  0  0  0
   36.3357    5.8729   16.1981 H   0  0  0  0  0  0  0  0  0  0  0  0
   39.8033    5.0078   16.0149 H   0  0  0  0  0  0  0  0  0  0  0  0
   39.8791    5.1570   14.2691 H   0  0  0  0  0  0  0  0  0  0  0  0
   39.6244    7.6079   14.3926 H   0  0  0  0  0  0  0  0  0  0  0  0
   40.9915    7.1084   15.3615 H   0  0  0  0  0  0  0  0  0  0  0  0
  1  2  2  0
  2  3  1  0
  2  4  1  0
  4  5  1  0
  4 28  1  0
  4 29  1  0
  5  6  1  0
  6 11  2  0
  6  7  1  0
  7  8  1  0
  7  9  2  0
  9 10  1  0
  9 15  1  0
 10 11  1  0
 11 12  1  0
 12 13  2  0
 12 14  1  0
 15 20  1  0
 15 16  2  0
 16 17  1  0
 16 30  1  0
 17 18  2  0
 17 31  1  0
 18 19  1  0
 18 32  1  0
 19 20  2  0
 19 21  1  0
 20 33  1  0
 21 22  1  0
 21 34  1  0
 22 27  1  0
 22 23  1  0
 22 35  1  0
 23 24  1  0
 23 36  1  0
 23 37  1  0
 24 25  1  0
 24 38  1  0
 24 39  1  0
 25 26  1  0
 26 27  1  0
 26 40  1  0
 26 41  1  0
 27 42  1  0
 27 43  1  0
M  CHG  2   3  -1  14  -1
M  END
>  <s_m_entry_id>  (1) 
479

>  <i_f3d_flags>  (1) 
0

>  <r_epik_Ionization_Penalty>  (1) 
  0.0006

>  <r_epik_State_Penalty>  (1) 
  0.0003

>  <i_epik_Tot_Q>  (1) 
-2

>  <s_m_job_name>  (1) 
glide-dock_SP_ptp1b_core_cons

>  <r_i_docking_score>  (1) 
-6.9795029577115

>  <r_i_glide_gscore>  (1) 
-6.9798029577115

>  <r_i_glide_emodel>  (1) 
-89.7381444321027

>  <index_string>  (1) 
4:0:0

$$$$
