20:0:0
     RDKit          3D

 46 49  0  0  1  0  0  0  0  0999 V2000
   34.9643   35.7575   20.2802 C   0  0  0  0  0  0  0  0  0  0  0  0
   34.3036   34.9792   21.3314 C   0  0  0  0  0  0  0  0  0  0  0  0
   34.1206   33.7699   21.1950 O   0  0  0  0  0  0  0  0  0  0  0  0
   33.9129   35.6491   22.4529 N   0  0  0  0  0  0  0  0  0  0  0  0
   33.2385   34.9172   23.5385 C   0  0  0  0  0  0  0  0  0  0  0  0
   34.1477   37.0463   22.6540 C   0  0  0  0  0  0  0  0  0  0  0  0
   33.8213   37.6603   23.8099 N   0  0  0  0  0  0  0  0  0  0  0  0
   35.1491   37.0918   20.4014 C   0  0  0  0  0  0  0  0  0  0  0  0
   34.7488   37.7891   21.6177 C   0  0  0  0  0  0  0  0  0  0  0  0
   34.9521   39.1654   21.8418 C   0  0  0  0  0  0  0  0  0  0  0  0
   34.6161   39.7521   23.0108 N   0  0  0  0  0  0  0  0  0  0  0  0
   34.0791   38.9584   23.9342 C   0  0  0  0  0  0  0  0  0  0  0  0
   33.7899   39.5494   25.1429 N   0  0  0  0  0  0  0  0  0  0  0  0
   32.7656   39.0660   26.0588 C   0  0  0  0  0  0  0  0  0  0  0  0
   31.3777   39.5232   25.5685 C   0  0  0  0  0  0  0  0  0  0  0  0
   33.0841   39.5440   27.4932 C   0  0  0  0  0  0  0  0  0  0  0  0
   32.2147   39.0040   28.5288 N   0  0  0  0  0  0  0  0  0  0  0  0
   31.4932   37.8727   28.3961 N   0  0  0  0  0  0  0  0  0  0  0  0
   30.9519   37.8056   29.6003 C   0  0  0  0  0  0  0  0  0  0  0  0
   31.3522   38.8000   30.4431 N   0  0  0  0  0  0  0  0  0  0  0  0
   32.1546   39.5501   29.7602 N   0  0  0  0  0  0  0  0  0  0  0  0
   32.8864   33.9211   23.2663 H   0  0  0  0  0  0  0  0  0  0  0  0
   33.9155   34.8061   24.3862 H   0  0  0  0  0  0  0  0  0  0  0  0
   32.3601   35.4650   23.8814 H   0  0  0  0  0  0  0  0  0  0  0  0
   35.6075   37.6819   19.6211 H   0  0  0  0  0  0  0  0  0  0  0  0
   35.4079   39.7940   21.0914 H   0  0  0  0  0  0  0  0  0  0  0  0
   33.9878   40.5423   25.2028 H   0  0  0  0  0  0  0  0  0  0  0  0
   32.7898   37.9755   26.0619 H   0  0  0  0  0  0  0  0  0  0  0  0
   30.5747   39.1497   26.2032 H   0  0  0  0  0  0  0  0  0  0  0  0
   31.3086   40.6115   25.5480 H   0  0  0  0  0  0  0  0  0  0  0  0
   31.1766   39.1618   24.5598 H   0  0  0  0  0  0  0  0  0  0  0  0
   33.0308   40.6329   27.5410 H   0  0  0  0  0  0  0  0  0  0  0  0
   34.1064   39.2702   27.7557 H   0  0  0  0  0  0  0  0  0  0  0  0
   30.2686   37.0189   29.8846 H   0  0  0  0  0  0  0  0  0  0  0  0
   35.3257   35.0300   19.1727 O   0  0  0  0  0  0  0  0  0  0  0  0
   37.6121   36.5131   15.9974 C   0  0  0  0  0  0  0  0  0  0  0  0
   38.2200   36.3493   17.2577 C   0  0  0  0  0  0  0  0  0  0  0  0
   37.4415   35.9565   18.3631 C   0  0  0  0  0  0  0  0  0  0  0  0
   36.0971   35.5524   18.1697 C   0  0  0  0  0  0  0  0  0  0  0  0
   35.5480   35.5517   16.8775 C   0  0  0  0  0  0  0  0  0  0  0  0
   36.2769   36.1086   15.8123 C   0  0  0  0  0  0  0  0  0  0  0  0
   38.2731   37.1486   15.0020 F   0  0  0  0  0  0  0  0  0  0  0  0
   39.2429   36.6655   17.4084 H   0  0  0  0  0  0  0  0  0  0  0  0
   37.9948   35.9489   19.5970 F   0  0  0  0  0  0  0  0  0  0  0  0
   34.5292   35.2244   16.7235 H   0  0  0  0  0  0  0  0  0  0  0  0
   35.7948   36.2476   14.8579 H   0  0  0  0  0  0  0  0  0  0  0  0
  1  2  1  0
  1  8  2  0
  1 35  1  0
  2  3  2  0
  2  4  1  0
  4  5  1  0
  4  6  1  0
  5 22  1  0
  5 23  1  0
  5 24  1  0
  6  7  2  0
  6  9  1  0
  7 12  1  0
  8  9  1  0
  8 25  1  0
  9 10  2  0
 10 11  1  0
 10 26  1  0
 11 12  2  0
 12 13  1  0
 13 14  1  0
 13 27  1  0
 14 15  1  0
 14 16  1  0
 14 28  1  0
 15 29  1  0
 15 30  1  0
 15 31  1  0
 16 17  1  0
 16 32  1  0
 16 33  1  0
 17 18  1  0
 17 21  1  0
 18 19  2  0
 19 20  1  0
 19 34  1  0
 20 21  2  0
 35 39  1  0
 36 37  2  0
 36 41  1  0
 36 42  1  0
 37 38  1  0
 37 43  1  0
 38 39  2  0
 38 44  1  0
 39 40  1  0
 40 41  2  0
 40 45  1  0
 41 46  1  0
M  END
>  <s_m_entry_id>  (1) 
838

>  <s_m_Source_Path>  (1) 
/projects/mai/users/kmzp800_harry/pmx_colab/docking_jobs/p38/glide-dock_SP_p38_mcs_docking_2

>  <s_m_Source_File>  (1) 
glide-dock_SP_p38_mcs_docking_2_pv.maegz

>  <i_m_Source_File_Index>  (1) 
22

>  <s_pdb_PDB_TITLE>  (1) 
MX MODEL

>  <r_i_docking_score>  (1) 
-7.18811180309842

>  <r_i_glide_gscore>  (1) 
-7.18811180309842

>  <r_i_glide_emodel>  (1) 
-42.5785449947813

>  <index_string>  (1) 
20:0:0

$$$$
