30:0:0
     RDKit          3D

 47 51  0  0  1  0  0  0  0  0999 V2000
   -4.9530   -4.7464   13.6541 C   0  0  0  0  0  0  0  0  0  0  0  0
   -3.7881   -5.3340   14.2133 O   0  0  0  0  0  0  0  0  0  0  0  0
   -2.7641   -4.5008   14.6175 C   0  0  0  0  0  0  0  0  0  0  0  0
   -2.7705   -3.0979   14.4226 C   0  0  0  0  0  0  0  0  0  0  0  0
   -1.6758   -2.3133   14.8268 C   0  0  0  0  0  0  0  0  0  0  0  0
   -0.5512   -2.9134   15.4308 C   0  0  0  0  0  0  0  0  0  0  0  0
    0.5858   -2.1828   15.8169 N   0  0  0  0  0  0  0  0  0  0  0  0
    1.2933   -1.2137   15.0908 C   0  0  0  0  0  0  0  0  0  0  0  0
    0.6562   -0.4987   14.2097 N   0  0  0  0  0  0  0  0  0  0  0  0
    1.3227    0.4630   13.4919 C   0  0  0  0  0  0  0  0  0  0  0  0
    2.6773    0.6727   13.6217 C   0  0  0  0  0  0  0  0  0  0  0  0
    3.3387   -0.0470   14.5699 N   0  0  0  0  0  0  0  0  0  0  0  0
    4.6488    0.0063   15.0154 C   0  0  0  0  0  0  0  0  0  0  0  0
    4.7412   -0.8709   16.0569 C   0  0  0  0  0  0  0  0  0  0  0  0
    3.5427   -1.5592   16.2209 N   0  0  0  0  0  0  0  0  0  0  0  0
    2.6832   -1.0209   15.3554 C   0  0  0  0  0  0  0  0  0  0  0  0
    0.4629    1.3001   12.6212 C   0  0  0  0  0  0  0  0  0  0  0  0
   -0.7670    0.8122   12.1058 C   0  0  0  0  0  0  0  0  0  0  0  0
   -1.5838    1.6043   11.2706 C   0  0  0  0  0  0  0  0  0  0  0  0
   -1.2011    2.9155   10.9225 C   0  0  0  0  0  0  0  0  0  0  0  0
   -1.7164    3.9872   10.1205 C   0  0  0  0  0  0  0  0  0  0  0  0
   -0.9363    5.0403   10.1591 N   0  0  0  0  0  0  0  0  0  0  0  0
    0.1003    4.6951   10.9649 N   0  0  0  0  0  0  0  0  0  0  0  0
    0.0168    3.4056   11.4610 C   0  0  0  0  0  0  0  0  0  0  0  0
    0.8377    2.6246   12.2929 C   0  0  0  0  0  0  0  0  0  0  0  0
   -0.5683   -4.3025   15.6701 C   0  0  0  0  0  0  0  0  0  0  0  0
   -1.6585   -5.1066   15.2543 C   0  0  0  0  0  0  0  0  0  0  0  0
   -1.7074   -6.4794   15.4142 O   0  0  0  0  0  0  0  0  0  0  0  0
   -0.7132   -7.1130   16.2074 C   0  0  0  0  0  0  0  0  0  0  0  0
   -5.6710   -5.5296   13.4160 H   0  0  0  0  0  0  0  0  0  0  0  0
   -4.7249   -4.2131   12.7307 H   0  0  0  0  0  0  0  0  0  0  0  0
   -5.4312   -4.0659   14.3589 H   0  0  0  0  0  0  0  0  0  0  0  0
   -3.6031   -2.5951   13.9534 H   0  0  0  0  0  0  0  0  0  0  0  0
   -1.7107   -1.2474   14.6651 H   0  0  0  0  0  0  0  0  0  0  0  0
    1.1859   -2.6625   16.4792 H   0  0  0  0  0  0  0  0  0  0  0  0
    3.2422    1.4191   13.0758 H   0  0  0  0  0  0  0  0  0  0  0  0
    5.3583    0.6865   14.5717 H   0  0  0  0  0  0  0  0  0  0  0  0
    5.6015   -1.1010   16.6720 H   0  0  0  0  0  0  0  0  0  0  0  0
   -1.0858   -0.1958   12.3335 H   0  0  0  0  0  0  0  0  0  0  0  0
   -2.5058    1.2006   10.8817 H   0  0  0  0  0  0  0  0  0  0  0  0
   -2.6210    4.0174    9.5316 H   0  0  0  0  0  0  0  0  0  0  0  0
    0.8370    5.3601   11.1590 H   0  0  0  0  0  0  0  0  0  0  0  0
    1.7483    3.0556   12.6795 H   0  0  0  0  0  0  0  0  0  0  0  0
    0.2884   -4.7442   16.1554 H   0  0  0  0  0  0  0  0  0  0  0  0
   -0.8903   -8.1877   16.1981 H   0  0  0  0  0  0  0  0  0  0  0  0
    0.2932   -6.9463   15.8203 H   0  0  0  0  0  0  0  0  0  0  0  0
   -0.7635   -6.7927   17.2489 H   0  0  0  0  0  0  0  0  0  0  0  0
  1  2  1  0
  1 30  1  0
  1 31  1  0
  1 32  1  0
  2  3  1  0
  3  4  2  0
  3 27  1  0
  4  5  1  0
  4 33  1  0
  5  6  2  0
  5 34  1  0
  6  7  1  0
  6 26  1  0
  7  8  1  0
  7 35  1  0
  8  9  2  0
  8 16  1  0
  9 10  1  0
 10 11  2  0
 10 17  1  0
 11 12  1  0
 11 36  1  0
 12 13  1  0
 12 16  1  0
 13 14  2  0
 13 37  1  0
 14 15  1  0
 14 38  1  0
 15 16  2  0
 17 18  2  0
 17 25  1  0
 18 19  1  0
 18 39  1  0
 19 20  2  0
 19 40  1  0
 20 21  1  0
 20 24  1  0
 21 22  2  0
 21 41  1  0
 22 23  1  0
 23 24  1  0
 23 42  1  0
 24 25  2  0
 25 43  1  0
 26 27  2  0
 26 44  1  0
 27 28  1  0
 28 29  1  0
 29 45  1  0
 29 46  1  0
 29 47  1  0
M  END
>  <s_m_entry_id>  (1) 
710

>  <IC50[nM]>  (1) 
3.8

>  <s_m_Source_Path>  (1) 
/projects/mai/users/kmzp800_harry/pmx_colab/docking_jobs/syk

>  <s_m_Source_File>  (1) 
tnks2_lig.sdf

>  <i_m_Source_File_Index>  (1) 
31

>  <s_m_job_name>  (1) 
glide-dock_SP_tnks2_no_const

>  <r_i_docking_score>  (1) 
-7.10478076971642

>  <r_i_glide_gscore>  (1) 
-7.10478076971642

>  <r_i_glide_emodel>  (1) 
-61.0038275268049

>  <index_string>  (1) 
30:0:0

$$$$
