7:0:0
     RDKit          3D

 39 41  0  0  1  0  0  0  0  0999 V2000
  -14.8482  -17.0274  -26.7386 N   0  0  0  0  0  0  0  0  0  0  0  0
  -15.3217  -17.7949  -25.7957 C   0  0  0  0  0  0  0  0  0  0  0  0
  -16.0482  -17.2551  -24.7331 N   0  0  0  0  0  0  0  0  0  0  0  0
  -16.2461  -15.9522  -24.5239 C   0  0  0  0  0  0  0  0  0  0  0  0
  -16.8483  -15.5553  -23.5386 O   0  0  0  0  0  0  0  0  0  0  0  0
  -15.1388  -19.2670  -25.8465 C   0  0  0  0  0  0  0  0  0  0  0  0
  -15.2481  -20.0493  -24.6771 C   0  0  0  0  0  0  0  0  0  0  0  0
  -15.0257  -21.4357  -24.7333 C   0  0  0  0  0  0  0  0  0  0  0  0
  -14.6854  -22.0624  -25.9528 C   0  0  0  0  0  0  0  0  0  0  0  0
  -14.6431  -21.2760  -27.1214 C   0  0  0  0  0  0  0  0  0  0  0  0
  -14.8482  -19.8937  -27.0700 C   0  0  0  0  0  0  0  0  0  0  0  0
  -14.3403  -23.5529  -25.9762 C   0  0  0  0  0  0  0  0  0  0  0  0
  -15.0163  -15.6344  -26.6648 C   0  0  0  0  0  0  0  0  0  0  0  0
  -15.6773  -15.0383  -25.5652 C   0  0  0  0  0  0  0  0  0  0  0  0
  -15.7648  -13.6337  -25.4581 C   0  0  0  0  0  0  0  0  0  0  0  0
  -15.1667  -12.8224  -26.4425 C   0  0  0  0  0  0  0  0  0  0  0  0
  -14.5071  -13.4095  -27.5386 C   0  0  0  0  0  0  0  0  0  0  0  0
  -14.4482  -14.8114  -27.6583 C   0  0  0  0  0  0  0  0  0  0  0  0
  -13.2557  -23.8021  -24.9037 C   0  0  0  0  0  0  0  0  0  0  0  0
  -13.7641  -24.0351  -27.3226 C   0  0  0  0  0  0  0  0  0  0  0  0
  -15.6374  -24.3487  -25.7247 C   0  0  0  0  0  0  0  0  0  0  0  0
  -16.4794  -17.8897  -24.0732 H   0  0  0  0  0  0  0  0  0  0  0  0
  -15.4880  -19.6032  -23.7232 H   0  0  0  0  0  0  0  0  0  0  0  0
  -15.0967  -22.0096  -23.8218 H   0  0  0  0  0  0  0  0  0  0  0  0
  -14.4107  -21.6917  -28.0775 H   0  0  0  0  0  0  0  0  0  0  0  0
  -14.7673  -19.3209  -27.9824 H   0  0  0  0  0  0  0  0  0  0  0  0
  -16.2689  -13.1775  -24.6171 H   0  0  0  0  0  0  0  0  0  0  0  0
  -15.2075  -11.7469  -26.3627 H   0  0  0  0  0  0  0  0  0  0  0  0
  -14.0483  -12.7809  -28.2888 H   0  0  0  0  0  0  0  0  0  0  0  0
  -13.9324  -15.2557  -28.4971 H   0  0  0  0  0  0  0  0  0  0  0  0
  -12.7840  -24.7727  -25.0048 H   0  0  0  0  0  0  0  0  0  0  0  0
  -13.6479  -23.7296  -23.8906 H   0  0  0  0  0  0  0  0  0  0  0  0
  -12.4483  -23.0739  -24.9934 H   0  0  0  0  0  0  0  0  0  0  0  0
  -14.5113  -23.9727  -28.1120 H   0  0  0  0  0  0  0  0  0  0  0  0
  -12.8822  -23.4638  -27.6153 H   0  0  0  0  0  0  0  0  0  0  0  0
  -13.4626  -25.0819  -27.2693 H   0  0  0  0  0  0  0  0  0  0  0  0
  -16.4350  -24.0024  -26.3835 H   0  0  0  0  0  0  0  0  0  0  0  0
  -15.5168  -25.4094  -25.9386 H   0  0  0  0  0  0  0  0  0  0  0  0
  -15.9918  -24.2408  -24.6999 H   0  0  0  0  0  0  0  0  0  0  0  0
  1  2  2  0
  1 13  1  0
  2  3  1  0
  2  6  1  0
  3  4  1  0
  3 22  1  0
  4  5  2  0
  4 14  1  0
  6  7  2  0
  6 11  1  0
  7  8  1  0
  7 23  1  0
  8  9  2  0
  8 24  1  0
  9 10  1  0
  9 12  1  0
 10 11  2  0
 10 25  1  0
 11 26  1  0
 12 19  1  0
 12 20  1  0
 12 21  1  0
 13 14  2  0
 13 18  1  0
 14 15  1  0
 15 16  2  0
 15 27  1  0
 16 17  1  0
 16 28  1  0
 17 18  2  0
 17 29  1  0
 18 30  1  0
 19 31  1  0
 19 32  1  0
 19 33  1  0
 20 34  1  0
 20 35  1  0
 20 36  1  0
 21 37  1  0
 21 38  1  0
 21 39  1  0
M  END
>  <s_m_entry_id>  (1) 
422

>  <Name>  (1) 
3a

>  <IC50[nM]>  (1) 
8.7

>  <s_m_Source_Path>  (1) 
/projects/mai/users/kmzp800_harry/pmx_colab/docking_jobs/tnks2

>  <s_m_Source_File>  (1) 
tnks2_lig.sdf

>  <i_m_Source_File_Index>  (1) 
8

>  <s_m_job_name>  (1) 
glide-dock_SP_tnks2_no_cons

>  <r_i_docking_score>  (1) 
-10.7172468575091

>  <r_i_glide_gscore>  (1) 
-10.7172468575091

>  <r_i_glide_emodel>  (1) 
-64.5786888755404

>  <index_string>  (1) 
7:0:0

$$$$
