15:0:0
     RDKit          3D

 39 43  0  0  1  0  0  0  0  0999 V2000
    6.2040    0.1640   15.8610 C   0  0  0  0  0  0  0  0  0  0  0  0
    5.8510    0.9260   14.7950 N   0  0  0  0  0  0  0  0  0  0  0  0
    4.5770    0.5700   14.5600 C   0  0  0  0  0  0  0  0  0  0  0  0
    3.7430    1.0630   13.5590 C   0  0  0  0  0  0  0  0  0  0  0  0
    4.2160    2.0600   12.6420 N   0  0  0  0  0  0  0  0  0  0  0  0
    2.4720    0.5640   13.4920 N   0  0  0  0  0  0  0  0  0  0  0  0
    2.0120   -0.3870   14.3640 C   0  0  0  0  0  0  0  0  0  0  0  0
    2.8770   -0.8690   15.3660 C   0  0  0  0  0  0  0  0  0  0  0  0
    4.1300   -0.3580   15.4110 N   0  0  0  0  0  0  0  0  0  0  0  0
    5.1350   -0.6390   16.2510 C   0  0  0  0  0  0  0  0  0  0  0  0
    0.6280   -0.8920   14.2440 C   0  0  0  0  0  0  0  0  0  0  0  0
   -0.2950   -0.2700   13.3620 C   0  0  0  0  0  0  0  0  0  0  0  0
   -1.6140   -0.7430   13.2400 C   0  0  0  0  0  0  0  0  0  0  0  0
   -1.9700   -1.8400   14.0170 C   0  0  0  0  0  0  0  0  0  0  0  0
   -3.1540   -2.5310   14.1300 C   0  0  0  0  0  0  0  0  0  0  0  0
   -2.9430   -3.5180   15.0380 N   0  0  0  0  0  0  0  0  0  0  0  0
   -1.6920   -3.4690   15.4880 N   0  0  0  0  0  0  0  0  0  0  0  0
   -1.0940   -2.4440   14.8660 C   0  0  0  0  0  0  0  0  0  0  0  0
    0.2170   -2.0040   15.0130 C   0  0  0  0  0  0  0  0  0  0  0  0
    3.4840    2.6630   11.5660 C   0  0  0  0  0  0  0  0  0  0  0  0
    2.1150    2.9580   11.6680 C   0  0  0  0  0  0  0  0  0  0  0  0
    1.4360    3.5460   10.5990 C   0  0  0  0  0  0  0  0  0  0  0  0
    2.1200    3.8430    9.4170 C   0  0  0  0  0  0  0  0  0  0  0  0
    3.4820    3.5520    9.3070 C   0  0  0  0  0  0  0  0  0  0  0  0
    4.1600    2.9640   10.3790 C   0  0  0  0  0  0  0  0  0  0  0  0
    7.1910    0.1785   16.3465 H   0  0  0  0  0  0  0  0  0  0  0  0
    5.1874    2.3774   12.7705 H   0  0  0  0  0  0  0  0  0  0  0  0
    2.5465   -1.6326   16.0855 H   0  0  0  0  0  0  0  0  0  0  0  0
    5.1191   -1.3595   17.0821 H   0  0  0  0  0  0  0  0  0  0  0  0
    0.0268    0.5957   12.7645 H   0  0  0  0  0  0  0  0  0  0  0  0
   -2.3335   -0.2654   12.5587 H   0  0  0  0  0  0  0  0  0  0  0  0
   -4.0896   -2.3241   13.5898 H   0  0  0  0  0  0  0  0  0  0  0  0
   -1.2647   -4.0988   16.1821 H   0  0  0  0  0  0  0  0  0  0  0  0
    0.9106   -2.5047   15.7045 H   0  0  0  0  0  0  0  0  0  0  0  0
    1.5737    2.7242   12.5966 H   0  0  0  0  0  0  0  0  0  0  0  0
    0.3638    3.7752   10.6871 H   0  0  0  0  0  0  0  0  0  0  0  0
    1.5863    4.3056    8.5737 H   0  0  0  0  0  0  0  0  0  0  0  0
    4.0209    3.7855    8.3769 H   0  0  0  0  0  0  0  0  0  0  0  0
    5.2324    2.7365   10.2884 H   0  0  0  0  0  0  0  0  0  0  0  0
  1 10  2  0
  1  2  1  0
  2  3  2  0
  3  9  1  0
  3  4  1  0
  4  5  1  0
  4  6  2  0
  5 20  1  0
  6  7  1  0
  7  8  2  0
  7 11  1  0
  8  9  1  0
  9 10  1  0
 11 19  1  0
 11 12  2  0
 12 13  1  0
 13 14  2  0
 14 15  1  0
 14 18  1  0
 15 16  2  0
 16 17  1  0
 17 18  1  0
 18 19  2  0
 20 21  2  0
 20 25  1  0
 21 22  1  0
 22 23  2  0
 23 24  1  0
 24 25  2  0
  1 26  1  0
  5 27  1  0
  8 28  1  0
 10 29  1  0
 12 30  1  0
 13 31  1  0
 15 32  1  0
 17 33  1  0
 19 34  1  0
 21 35  1  0
 22 36  1  0
 23 37  1  0
 24 38  1  0
 25 39  1  0
M  END
>  <s_m_entry_id>  (1) 
16

>  <MODEL>  (1) 
1

>  <REMARK>  (1) 
 VINA RESULT:    -9.655      0.000      0.000
 INTER + INTRA:         -11.036
 INTER:                 -10.784
 INTRA:                  -0.251
 UNBOUND:                -0.251
  Name = /scratch/kmzp800/tmpfl0swqg5/tmpdrc0gfun.pdb
  2 active torsions:
  status: ('A' for Active; 'I' for Inactive)
    1  A    between atoms: N2_5  and  C4_6
    2  A    between atoms: C10_13  and  C11_14
                            x       y       z     vdW  Elec       q    Type
                         _______ _______ _______ _____ _____    ______ ____

>  <TORSDO>  (1) 
F 2

>  <grid_id>  (1) 
syk-prepared

>  <grid_path>  (1) 
syk_vina.pdbqt

>  <grid_filename>  (1) 
syk_vina.pdbqt

>  <docking_score>  (1) 
-9.655

>  <compound_name>  (1) 
CHEMBL3265027

>  <index_string>  (1) 
15:0:0

>  <s_m_Source_Path>  (1) 
/projects/mai/users/kmzp800_harry/pmx_colab/docking_jobs/syk/vina_prep/output

>  <s_m_Source_File>  (1) 
ptp1b_docked_conformers.sdf

>  <i_m_Source_File_Index>  (1) 
16

$$$$
