34:0:0
     RDKit          3D

 64 68  0  0  1  0  0  0  0  0999 V2000
   -4.7798   -1.8122   15.2799 C   0  0  0  0  0  0  0  0  0  0  0  0
   -3.9209   -2.7437   14.4060 C   0  0  0  0  0  0  0  0  0  0  0  0
   -4.2361   -4.2043   14.8014 C   0  0  0  0  0  0  0  0  0  0  0  0
   -4.3032   -2.5855   12.9166 C   0  0  0  0  0  0  0  0  0  0  0  0
   -2.4462   -2.3724   14.6224 C   0  0  0  0  0  0  0  0  0  0  0  0
   -1.5876   -3.1640   15.4193 C   0  0  0  0  0  0  0  0  0  0  0  0
   -0.2506   -2.7861   15.6213 C   0  0  0  0  0  0  0  0  0  0  0  0
    0.2678   -1.6159   15.0341 C   0  0  0  0  0  0  0  0  0  0  0  0
    1.6071   -1.3194   15.3122 N   0  0  0  0  0  0  0  0  0  0  0  0
    2.5286   -0.4391   14.7278 C   0  0  0  0  0  0  0  0  0  0  0  0
    2.2022    0.3708   13.7674 N   0  0  0  0  0  0  0  0  0  0  0  0
    3.1347    1.2491   13.2520 C   0  0  0  0  0  0  0  0  0  0  0  0
    4.4386    1.2686   13.6856 C   0  0  0  0  0  0  0  0  0  0  0  0
    4.7597    0.4610   14.7253 N   0  0  0  0  0  0  0  0  0  0  0  0
    5.9019    0.3711   15.4888 C   0  0  0  0  0  0  0  0  0  0  0  0
    5.5909   -0.4941   16.5013 C   0  0  0  0  0  0  0  0  0  0  0  0
    4.3493   -1.0749   16.3391 N   0  0  0  0  0  0  0  0  0  0  0  0
    3.8231   -0.4262   15.3005 C   0  0  0  0  0  0  0  0  0  0  0  0
    2.6718    2.2338   12.2487 C   0  0  0  0  0  0  0  0  0  0  0  0
    3.5227    2.6474   11.1951 C   0  0  0  0  0  0  0  0  0  0  0  0
    3.0974    3.5861   10.2378 C   0  0  0  0  0  0  0  0  0  0  0  0
    1.8154    4.1510   10.3343 C   0  0  0  0  0  0  0  0  0  0  0  0
    0.9596    3.7757   11.3943 C   0  0  0  0  0  0  0  0  0  0  0  0
   -0.2987    4.3932   11.5890 N   0  0  0  0  0  0  0  0  0  0  0  0
   -1.1767    4.7650   10.6412 C   0  0  0  0  0  0  0  0  0  0  0  0
   -1.0575    4.5078    9.4426 O   0  0  0  0  0  0  0  0  0  0  0  0
   -2.3269    5.5893   11.1412 C   0  0  0  0  0  0  0  0  0  0  0  0
   -2.8764    5.3753   12.4260 C   0  0  0  0  0  0  0  0  0  0  0  0
   -3.9153    6.2001   12.9005 C   0  0  0  0  0  0  0  0  0  0  0  0
   -4.4231    7.2503   12.1013 C   0  0  0  0  0  0  0  0  0  0  0  0
   -3.9061    7.4302   10.8002 C   0  0  0  0  0  0  0  0  0  0  0  0
   -2.8713    6.6026   10.3216 C   0  0  0  0  0  0  0  0  0  0  0  0
   -5.4815    8.1739   12.6378 C   0  0  0  0  0  0  0  0  0  0  0  0
   -5.8822    8.0031   13.8096 O   0  0  0  0  0  0  0  0  0  0  0  0
   -5.9154    9.0980   11.9162 O   0  0  0  0  0  0  0  0  0  0  0  0
    1.3927    2.8270   12.3433 C   0  0  0  0  0  0  0  0  0  0  0  0
   -0.5848   -0.8091   14.2511 C   0  0  0  0  0  0  0  0  0  0  0  0
   -1.9249   -1.1857   14.0542 C   0  0  0  0  0  0  0  0  0  0  0  0
   -5.8455   -2.0012   15.1459 H   0  0  0  0  0  0  0  0  0  0  0  0
   -4.5873   -0.7657   15.0488 H   0  0  0  0  0  0  0  0  0  0  0  0
   -4.5531   -1.9493   16.3379 H   0  0  0  0  0  0  0  0  0  0  0  0
   -3.6060   -4.9101   14.2586 H   0  0  0  0  0  0  0  0  0  0  0  0
   -4.0968   -4.3787   15.8691 H   0  0  0  0  0  0  0  0  0  0  0  0
   -5.2737   -4.4594   14.5824 H   0  0  0  0  0  0  0  0  0  0  0  0
   -3.6552   -3.1901   12.2839 H   0  0  0  0  0  0  0  0  0  0  0  0
   -5.3294   -2.9025   12.7343 H   0  0  0  0  0  0  0  0  0  0  0  0
   -4.2199   -1.5603   12.5637 H   0  0  0  0  0  0  0  0  0  0  0  0
   -1.9278   -4.0639   15.9066 H   0  0  0  0  0  0  0  0  0  0  0  0
    0.3776   -3.4069   16.2453 H   0  0  0  0  0  0  0  0  0  0  0  0
    2.0301   -1.9035   16.0231 H   0  0  0  0  0  0  0  0  0  0  0  0
    5.1954    1.9623   13.3369 H   0  0  0  0  0  0  0  0  0  0  0  0
    6.7612    0.9897   15.2810 H   0  0  0  0  0  0  0  0  0  0  0  0
    6.1178   -0.7376   17.3989 H   0  0  0  0  0  0  0  0  0  0  0  0
    4.5108    2.2228   11.0986 H   0  0  0  0  0  0  0  0  0  0  0  0
    3.7578    3.8785    9.4353 H   0  0  0  0  0  0  0  0  0  0  0  0
    1.5118    4.8913    9.6085 H   0  0  0  0  0  0  0  0  0  0  0  0
   -0.5546    4.5892   12.5445 H   0  0  0  0  0  0  0  0  0  0  0  0
   -2.4961    4.5941   13.0685 H   0  0  0  0  0  0  0  0  0  0  0  0
   -4.3019    6.0379   13.8970 H   0  0  0  0  0  0  0  0  0  0  0  0
   -4.2897    8.2172   10.1677 H   0  0  0  0  0  0  0  0  0  0  0  0
   -2.4765    6.7709    9.3291 H   0  0  0  0  0  0  0  0  0  0  0  0
    0.7424    2.5557   13.1625 H   0  0  0  0  0  0  0  0  0  0  0  0
   -0.2476    0.1125   13.8059 H   0  0  0  0  0  0  0  0  0  0  0  0
   -2.5444   -0.5350   13.4598 H   0  0  0  0  0  0  0  0  0  0  0  0
  1  2  1  0
  1 39  1  0
  1 40  1  0
  1 41  1  0
  2  3  1  0
  2  4  1  0
  2  5  1  0
  3 42  1  0
  3 43  1  0
  3 44  1  0
  4 45  1  0
  4 46  1  0
  4 47  1  0
  5  6  2  0
  5 38  1  0
  6  7  1  0
  6 48  1  0
  7  8  2  0
  7 49  1  0
  8  9  1  0
  8 37  1  0
  9 10  1  0
  9 50  1  0
 10 11  2  0
 10 18  1  0
 11 12  1  0
 12 13  2  0
 12 19  1  0
 13 14  1  0
 13 51  1  0
 14 15  1  0
 14 18  1  0
 15 16  2  0
 15 52  1  0
 16 17  1  0
 16 53  1  0
 17 18  2  0
 19 20  2  0
 19 36  1  0
 20 21  1  0
 20 54  1  0
 21 22  2  0
 21 55  1  0
 22 23  1  0
 22 56  1  0
 23 24  1  0
 23 36  2  0
 24 25  1  0
 24 57  1  0
 25 26  2  0
 25 27  1  0
 27 28  2  0
 27 32  1  0
 28 29  1  0
 28 58  1  0
 29 30  2  0
 29 59  1  0
 30 31  1  0
 30 33  1  0
 31 32  2  0
 31 60  1  0
 32 61  1  0
 33 34  2  0
 33 35  1  0
 36 62  1  0
 37 38  2  0
 37 63  1  0
 38 64  1  0
M  CHG  1  35  -1
M  END
>  <s_m_entry_id>  (1) 
1788

>  <IC50[nM]>  (1) 
65

>  <s_m_Source_Path>  (1) 
/projects/mai/users/kmzp800_harry/pmx_colab/docking_jobs/syk

>  <s_m_Source_File>  (1) 
tnks2_lig.sdf

>  <i_m_Source_File_Index>  (1) 
35

>  <s_m_job_name>  (1) 
glide-dock_SP_syk_single_compound_core_const_5

>  <r_i_docking_score>  (1) 
-7.70114657311265

>  <r_i_glide_gscore>  (1) 
-7.70114657311265

>  <r_i_glide_emodel>  (1) 
-58.7143915453769

>  <index_string>  (1) 
34:0:0

$$$$
