31:0:0
     RDKit          3D

 51 54  0  0  1  0  0  0  0  0999 V2000
    1.4681    6.4039   12.5214 C   0  0  0  0  0  0  0  0  0  0  0  0
    0.7873    5.7141   11.4845 O   0  0  0  0  0  0  0  0  0  0  0  0
    0.2093    4.4972   11.7867 C   0  0  0  0  0  0  0  0  0  0  0  0
    0.2810    3.8928   13.0642 C   0  0  0  0  0  0  0  0  0  0  0  0
   -0.3106    2.6402   13.2926 C   0  0  0  0  0  0  0  0  0  0  0  0
   -0.9949    1.9666   12.2604 C   0  0  0  0  0  0  0  0  0  0  0  0
   -1.5974    0.7186   12.4769 N   0  0  0  0  0  0  0  0  0  0  0  0
   -1.2181   -0.2538   13.4152 C   0  0  0  0  0  0  0  0  0  0  0  0
   -2.1987   -0.9347   13.9370 N   0  0  0  0  0  0  0  0  0  0  0  0
   -1.9135   -1.9069   14.8734 C   0  0  0  0  0  0  0  0  0  0  0  0
   -0.6335   -2.2105   15.2694 C   0  0  0  0  0  0  0  0  0  0  0  0
    0.3849   -1.5183   14.7026 N   0  0  0  0  0  0  0  0  0  0  0  0
    1.7503   -1.5855   14.8932 C   0  0  0  0  0  0  0  0  0  0  0  0
    2.3028   -0.6609   14.0548 C   0  0  0  0  0  0  0  0  0  0  0  0
    1.3194   -0.0071   13.3256 N   0  0  0  0  0  0  0  0  0  0  0  0
    0.1549   -0.5089   13.7407 C   0  0  0  0  0  0  0  0  0  0  0  0
   -3.0653   -2.5790   15.5069 C   0  0  0  0  0  0  0  0  0  0  0  0
   -3.0056   -3.9532   15.8222 C   0  0  0  0  0  0  0  0  0  0  0  0
   -4.0390   -4.5729   16.5452 C   0  0  0  0  0  0  0  0  0  0  0  0
   -5.1551   -3.8312   16.9825 C   0  0  0  0  0  0  0  0  0  0  0  0
   -6.2328   -4.5355   17.7936 C   0  0  0  0  0  0  0  0  0  0  0  0
   -5.2369   -2.4520   16.6609 C   0  0  0  0  0  0  0  0  0  0  0  0
   -4.2083   -1.8506   15.9066 C   0  0  0  0  0  0  0  0  0  0  0  0
   -6.3766   -1.6022   17.1339 C   0  0  0  0  0  0  0  0  0  0  0  0
   -7.2382   -1.1976   16.3573 O   0  0  0  0  0  0  0  0  0  0  0  0
   -6.3713   -1.3039   18.4330 N   0  0  0  0  0  0  0  0  0  0  0  0
   -1.0967    2.5809   10.9972 C   0  0  0  0  0  0  0  0  0  0  0  0
   -0.4766    3.8346   10.7449 C   0  0  0  0  0  0  0  0  0  0  0  0
   -0.4939    4.4674    9.5199 O   0  0  0  0  0  0  0  0  0  0  0  0
   -0.9686    3.7526    8.3936 C   0  0  0  0  0  0  0  0  0  0  0  0
    1.8570    7.3465   12.1350 H   0  0  0  0  0  0  0  0  0  0  0  0
    0.7919    6.6349   13.3446 H   0  0  0  0  0  0  0  0  0  0  0  0
    2.3171    5.8298   12.8992 H   0  0  0  0  0  0  0  0  0  0  0  0
    0.7936    4.3639   13.8887 H   0  0  0  0  0  0  0  0  0  0  0  0
   -0.2335    2.2031   14.2761 H   0  0  0  0  0  0  0  0  0  0  0  0
   -2.3721    0.4659   11.8797 H   0  0  0  0  0  0  0  0  0  0  0  0
   -0.3804   -2.9486   16.0233 H   0  0  0  0  0  0  0  0  0  0  0  0
    2.1701   -2.2829   15.6038 H   0  0  0  0  0  0  0  0  0  0  0  0
    3.3429   -0.4078   13.9126 H   0  0  0  0  0  0  0  0  0  0  0  0
   -2.1428   -4.5359   15.5379 H   0  0  0  0  0  0  0  0  0  0  0  0
   -3.9561   -5.6216   16.7889 H   0  0  0  0  0  0  0  0  0  0  0  0
   -6.0806   -5.6166   17.8030 H   0  0  0  0  0  0  0  0  0  0  0  0
   -6.2201   -4.1879   18.8266 H   0  0  0  0  0  0  0  0  0  0  0  0
   -7.2241   -4.3475   17.3751 H   0  0  0  0  0  0  0  0  0  0  0  0
   -4.2614   -0.7939   15.6923 H   0  0  0  0  0  0  0  0  0  0  0  0
   -7.1276   -0.7633   18.8230 H   0  0  0  0  0  0  0  0  0  0  0  0
   -5.5880   -1.5938   19.0070 H   0  0  0  0  0  0  0  0  0  0  0  0
   -1.6274    2.0632   10.2171 H   0  0  0  0  0  0  0  0  0  0  0  0
   -0.7680    4.3385    7.4994 H   0  0  0  0  0  0  0  0  0  0  0  0
   -0.4502    2.8042    8.2727 H   0  0  0  0  0  0  0  0  0  0  0  0
   -2.0442    3.5756    8.4511 H   0  0  0  0  0  0  0  0  0  0  0  0
  1  2  1  0
  1 31  1  0
  1 32  1  0
  1 33  1  0
  2  3  1  0
  3  4  2  0
  3 28  1  0
  4  5  1  0
  4 34  1  0
  5  6  2  0
  5 35  1  0
  6  7  1  0
  6 27  1  0
  7  8  1  0
  7 36  1  0
  8  9  2  0
  8 16  1  0
  9 10  1  0
 10 11  2  0
 10 17  1  0
 11 12  1  0
 11 37  1  0
 12 13  1  0
 12 16  1  0
 13 14  2  0
 13 38  1  0
 14 15  1  0
 14 39  1  0
 15 16  2  0
 17 18  2  0
 17 23  1  0
 18 19  1  0
 18 40  1  0
 19 20  2  0
 19 41  1  0
 20 21  1  0
 20 22  1  0
 21 42  1  0
 21 43  1  0
 21 44  1  0
 22 23  2  0
 22 24  1  0
 23 45  1  0
 24 25  2  0
 24 26  1  0
 26 46  1  0
 26 47  1  0
 27 28  2  0
 27 48  1  0
 28 29  1  0
 29 30  1  0
 30 49  1  0
 30 50  1  0
 30 51  1  0
M  END
>  <s_m_entry_id>  (1) 
711

>  <IC50[nM]>  (1) 
28.3

>  <s_m_Source_Path>  (1) 
/projects/mai/users/kmzp800_harry/pmx_colab/docking_jobs/syk

>  <s_m_Source_File>  (1) 
tnks2_lig.sdf

>  <i_m_Source_File_Index>  (1) 
32

>  <s_m_job_name>  (1) 
glide-dock_SP_tnks2_no_const

>  <r_i_docking_score>  (1) 
-6.73569758901055

>  <r_i_glide_gscore>  (1) 
-6.73569758901055

>  <r_i_glide_emodel>  (1) 
-70.4905817315884

>  <index_string>  (1) 
31:0:0

$$$$
