25:0:0
     RDKit          3D

 60 64  0  0  1  0  0  0  0  0999 V2000
   -4.5577   -3.1020   15.5783 C   0  0  0  0  0  0  0  0  0  0  0  0
   -3.8993   -2.2092   14.6895 O   0  0  0  0  0  0  0  0  0  0  0  0
   -2.5346   -2.0539   14.8235 C   0  0  0  0  0  0  0  0  0  0  0  0
   -1.7386   -2.8297   15.7012 C   0  0  0  0  0  0  0  0  0  0  0  0
   -0.3604   -2.5805   15.8169 C   0  0  0  0  0  0  0  0  0  0  0  0
    0.2520   -1.5592   15.0660 C   0  0  0  0  0  0  0  0  0  0  0  0
    1.6161   -1.3320   15.2967 N   0  0  0  0  0  0  0  0  0  0  0  0
    2.5334   -0.4324   14.7277 C   0  0  0  0  0  0  0  0  0  0  0  0
    2.2032    0.3730   13.7535 N   0  0  0  0  0  0  0  0  0  0  0  0
    3.1362    1.2481   13.2305 C   0  0  0  0  0  0  0  0  0  0  0  0
    4.4383    1.2900   13.6819 C   0  0  0  0  0  0  0  0  0  0  0  0
    4.7710    0.4839   14.7224 N   0  0  0  0  0  0  0  0  0  0  0  0
    5.9164    0.3885   15.4893 C   0  0  0  0  0  0  0  0  0  0  0  0
    5.6167   -0.4988   16.4924 C   0  0  0  0  0  0  0  0  0  0  0  0
    4.3684   -1.0631   16.3162 N   0  0  0  0  0  0  0  0  0  0  0  0
    3.8373   -0.4140   15.2863 C   0  0  0  0  0  0  0  0  0  0  0  0
    2.6567    2.1588   12.1565 C   0  0  0  0  0  0  0  0  0  0  0  0
    3.5692    2.6706   11.1916 C   0  0  0  0  0  0  0  0  0  0  0  0
    3.1388    3.4967   10.1389 C   0  0  0  0  0  0  0  0  0  0  0  0
    1.7836    3.8485   10.0456 C   0  0  0  0  0  0  0  0  0  0  0  0
    0.8636    3.3920   11.0132 C   0  0  0  0  0  0  0  0  0  0  0  0
    1.2980    2.5504   12.0644 C   0  0  0  0  0  0  0  0  0  0  0  0
   -0.5807    3.7388   10.8551 C   0  0  0  0  0  0  0  0  0  0  0  0
   -1.1408    3.5203    9.7799 O   0  0  0  0  0  0  0  0  0  0  0  0
   -1.1469    4.2876   11.9451 N   0  0  0  0  0  0  0  0  0  0  0  0
   -2.4380    4.8654   12.0923 C   0  0  0  0  0  0  0  0  0  0  0  0
   -3.3799    5.0107   11.0412 C   0  0  0  0  0  0  0  0  0  0  0  0
   -4.6057    5.6615   11.2683 C   0  0  0  0  0  0  0  0  0  0  0  0
   -4.9120    6.1805   12.5455 C   0  0  0  0  0  0  0  0  0  0  0  0
   -3.9888    6.0058   13.6011 C   0  0  0  0  0  0  0  0  0  0  0  0
   -2.7574    5.3657   13.3711 C   0  0  0  0  0  0  0  0  0  0  0  0
   -6.1863    6.9398   12.7669 C   0  0  0  0  0  0  0  0  0  0  0  0
   -7.0790    6.9049   11.8914 O   0  0  0  0  0  0  0  0  0  0  0  0
   -6.3029    7.6055   13.8170 O   0  0  0  0  0  0  0  0  0  0  0  0
   -0.5382   -0.8094   14.1676 C   0  0  0  0  0  0  0  0  0  0  0  0
   -1.9222   -1.0497   14.0394 C   0  0  0  0  0  0  0  0  0  0  0  0
   -2.7379   -0.3196   13.2028 O   0  0  0  0  0  0  0  0  0  0  0  0
   -2.1528    0.6648   12.3600 C   0  0  0  0  0  0  0  0  0  0  0  0
   -5.6321   -3.0597   15.3977 H   0  0  0  0  0  0  0  0  0  0  0  0
   -4.2346   -4.1336   15.4262 H   0  0  0  0  0  0  0  0  0  0  0  0
   -4.3944   -2.8224   16.6206 H   0  0  0  0  0  0  0  0  0  0  0  0
   -2.1586   -3.6126   16.3156 H   0  0  0  0  0  0  0  0  0  0  0  0
    0.2235   -3.1669   16.5141 H   0  0  0  0  0  0  0  0  0  0  0  0
    2.0284   -1.9055   16.0228 H   0  0  0  0  0  0  0  0  0  0  0  0
    5.1959    1.9812   13.3309 H   0  0  0  0  0  0  0  0  0  0  0  0
    6.7739    1.0126   15.2857 H   0  0  0  0  0  0  0  0  0  0  0  0
    6.1357   -0.7795   17.3855 H   0  0  0  0  0  0  0  0  0  0  0  0
    4.6110    2.3900   11.2235 H   0  0  0  0  0  0  0  0  0  0  0  0
    3.8416    3.8530    9.4020 H   0  0  0  0  0  0  0  0  0  0  0  0
    1.4516    4.4648    9.2212 H   0  0  0  0  0  0  0  0  0  0  0  0
    0.5806    2.1897   12.7863 H   0  0  0  0  0  0  0  0  0  0  0  0
   -0.5442    4.3808   12.7481 H   0  0  0  0  0  0  0  0  0  0  0  0
   -3.1867    4.6618   10.0391 H   0  0  0  0  0  0  0  0  0  0  0  0
   -5.2992    5.7871   10.4467 H   0  0  0  0  0  0  0  0  0  0  0  0
   -4.2115    6.3868   14.5890 H   0  0  0  0  0  0  0  0  0  0  0  0
   -2.0537    5.2512   14.1850 H   0  0  0  0  0  0  0  0  0  0  0  0
   -0.1038   -0.0272   13.5792 H   0  0  0  0  0  0  0  0  0  0  0  0
   -2.9232    1.1123   11.7314 H   0  0  0  0  0  0  0  0  0  0  0  0
   -1.7026    1.4665   12.9448 H   0  0  0  0  0  0  0  0  0  0  0  0
   -1.3983    0.2325   11.7001 H   0  0  0  0  0  0  0  0  0  0  0  0
  1  2  1  0
  1 39  1  0
  1 40  1  0
  1 41  1  0
  2  3  1  0
  3  4  2  0
  3 36  1  0
  4  5  1  0
  4 42  1  0
  5  6  2  0
  5 43  1  0
  6  7  1  0
  6 35  1  0
  7  8  1  0
  7 44  1  0
  8  9  2  0
  8 16  1  0
  9 10  1  0
 10 11  2  0
 10 17  1  0
 11 12  1  0
 11 45  1  0
 12 13  1  0
 12 16  1  0
 13 14  2  0
 13 46  1  0
 14 15  1  0
 14 47  1  0
 15 16  2  0
 17 18  2  0
 17 22  1  0
 18 19  1  0
 18 48  1  0
 19 20  2  0
 19 49  1  0
 20 21  1  0
 20 50  1  0
 21 22  2  0
 21 23  1  0
 22 51  1  0
 23 24  2  0
 23 25  1  0
 25 26  1  0
 25 52  1  0
 26 27  2  0
 26 31  1  0
 27 28  1  0
 27 53  1  0
 28 29  2  0
 28 54  1  0
 29 30  1  0
 29 32  1  0
 30 31  2  0
 30 55  1  0
 31 56  1  0
 32 33  2  0
 32 34  1  0
 35 36  2  0
 35 57  1  0
 36 37  1  0
 37 38  1  0
 38 58  1  0
 38 59  1  0
 38 60  1  0
M  CHG  1  34  -1
M  END
>  <s_m_entry_id>  (1) 
1082

>  <IC50[nM]>  (1) 
0.84

>  <s_m_Source_Path>  (1) 
/projects/mai/users/kmzp800_harry/pmx_colab/docking_jobs/syk

>  <s_m_Source_File>  (1) 
tnks2_lig.sdf

>  <i_m_Source_File_Index>  (1) 
27

>  <s_m_job_name>  (1) 
glide-dock_SP_syk_mcs

>  <r_i_docking_score>  (1) 
-8.02940991931165

>  <r_i_glide_gscore>  (1) 
-8.02940991931165

>  <r_i_glide_emodel>  (1) 
-76.2254585240774

>  <index_string>  (1) 
25:0:0

$$$$
