0:0:0
     RDKit          3D

 44 46  0  0  1  0  0  0  0  0999 V2000
  -15.2243  -19.2599  -25.9328 C   0  0  0  0  0  0  0  0  0  0  0  0
  -15.4799  -20.0890  -24.8197 C   0  0  0  0  0  0  0  0  0  0  0  0
  -14.7809  -19.8377  -27.1399 C   0  0  0  0  0  0  0  0  0  0  0  0
  -15.3851  -17.7850  -25.8417 C   0  0  0  0  0  0  0  0  0  0  0  0
  -15.2716  -21.4760  -24.9166 C   0  0  0  0  0  0  0  0  0  0  0  0
  -14.5669  -21.2153  -27.2195 C   0  0  0  0  0  0  0  0  0  0  0  0
  -14.8098  -22.0572  -26.1155 C   0  0  0  0  0  0  0  0  0  0  0  0
  -16.1425  -17.2239  -24.8145 N   0  0  0  0  0  0  0  0  0  0  0  0
  -16.3435  -15.9122  -24.6209 C   0  0  0  0  0  0  0  0  0  0  0  0
  -14.8481  -17.0241  -26.7457 N   0  0  0  0  0  0  0  0  0  0  0  0
  -15.0109  -15.6371  -26.7009 C   0  0  0  0  0  0  0  0  0  0  0  0
  -15.7285  -15.0104  -25.6626 C   0  0  0  0  0  0  0  0  0  0  0  0
  -15.8194  -13.5988  -25.6548 C   0  0  0  0  0  0  0  0  0  0  0  0
  -15.1729  -12.8609  -26.6792 C   0  0  0  0  0  0  0  0  0  0  0  0
  -14.4491  -13.5006  -27.6948 C   0  0  0  0  0  0  0  0  0  0  0  0
  -14.3995  -14.8952  -27.7234 C   0  0  0  0  0  0  0  0  0  0  0  0
  -16.9364  -15.5095  -23.6338 O   0  0  0  0  0  0  0  0  0  0  0  0
  -14.3982  -23.5321  -26.1730 C   0  0  0  0  0  0  0  0  0  0  0  0
  -15.6493  -24.4003  -25.9391 C   0  0  0  0  0  0  0  0  0  0  0  0
  -13.2843  -23.7603  -25.1146 C   0  0  0  0  0  0  0  0  0  0  0  0
  -13.9120  -23.8404  -27.4874 O   0  0  0  0  0  0  0  0  0  0  0  0
  -15.2481  -11.5208  -26.7386 F   0  0  0  0  0  0  0  0  0  0  0  0
  -13.2164  -25.0585  -27.7464 C   0  0  0  0  0  0  0  0  0  0  0  0
  -11.6999  -24.7992  -27.8436 C   0  0  0  0  0  0  0  0  0  0  0  0
  -11.3340  -24.3723  -29.1408 O   0  0  0  0  0  0  0  0  0  0  0  0
  -15.8111  -19.6773  -23.8779 H   0  0  0  0  0  0  0  0  0  0  0  0
  -14.5583  -19.2311  -28.0060 H   0  0  0  0  0  0  0  0  0  0  0  0
  -15.4394  -22.0905  -24.0446 H   0  0  0  0  0  0  0  0  0  0  0  0
  -14.1572  -21.5727  -28.1439 H   0  0  0  0  0  0  0  0  0  0  0  0
  -16.5857  -17.8489  -24.1528 H   0  0  0  0  0  0  0  0  0  0  0  0
  -16.3714  -13.0872  -24.8788 H   0  0  0  0  0  0  0  0  0  0  0  0
  -13.9652  -12.9162  -28.4642 H   0  0  0  0  0  0  0  0  0  0  0  0
  -13.8556  -15.3966  -28.5109 H   0  0  0  0  0  0  0  0  0  0  0  0
  -16.0446  -24.2780  -24.9305 H   0  0  0  0  0  0  0  0  0  0  0  0
  -16.4417  -24.1262  -26.6363 H   0  0  0  0  0  0  0  0  0  0  0  0
  -15.4631  -25.4610  -26.0885 H   0  0  0  0  0  0  0  0  0  0  0  0
  -13.6521  -23.5986  -24.1015 H   0  0  0  0  0  0  0  0  0  0  0  0
  -12.8482  -24.7589  -25.1304 H   0  0  0  0  0  0  0  0  0  0  0  0
  -12.4614  -23.0609  -25.2666 H   0  0  0  0  0  0  0  0  0  0  0  0
  -13.5850  -25.4779  -28.6831 H   0  0  0  0  0  0  0  0  0  0  0  0
  -13.4275  -25.8112  -26.9876 H   0  0  0  0  0  0  0  0  0  0  0  0
  -11.1551  -25.7197  -27.6312 H   0  0  0  0  0  0  0  0  0  0  0  0
  -11.3685  -24.0582  -27.1206 H   0  0  0  0  0  0  0  0  0  0  0  0
  -11.6199  -25.0264  -29.7617 H   0  0  0  0  0  0  0  0  0  0  0  0
  1  2  2  0
  1  3  1  0
  1  4  1  0
  2  5  1  0
  2 26  1  0
  3  6  2  0
  3 27  1  0
  4  8  1  0
  4 10  2  0
  5  7  2  0
  5 28  1  0
  6  7  1  0
  6 29  1  0
  7 18  1  0
  8  9  1  0
  8 30  1  0
  9 12  1  0
  9 17  2  0
 10 11  1  0
 11 12  2  0
 11 16  1  0
 12 13  1  0
 13 14  2  0
 13 31  1  0
 14 15  1  0
 14 22  1  0
 15 16  2  0
 15 32  1  0
 16 33  1  0
 18 19  1  0
 18 20  1  0
 18 21  1  0
 19 34  1  0
 19 35  1  0
 19 36  1  0
 20 37  1  0
 20 38  1  0
 20 39  1  0
 21 23  1  0
 23 24  1  0
 23 40  1  0
 23 41  1  0
 24 25  1  0
 24 42  1  0
 24 43  1  0
 25 44  1  0
M  END
>  <s_m_entry_id>  (1) 
442

>  <Name>  (1) 
5n

>  <IC50[nM]>  (1) 
14

>  <s_m_Source_Path>  (1) 
/projects/mai/users/kmzp800_harry/pmx_colab/docking_jobs/tnks2

>  <s_m_Source_File>  (1) 
tnks2_lig.sdf

>  <i_m_Source_File_Index>  (1) 
1

>  <s_m_job_name>  (1) 
glide-dock_SP_tnks2_core_const

>  <r_i_docking_score>  (1) 
-10.7854871029251

>  <r_i_glide_gscore>  (1) 
-10.7854871029251

>  <r_i_glide_emodel>  (1) 
-55.304321917716

>  <index_string>  (1) 
0:0:0

$$$$
