27:0:0
     RDKit          3D

 63 68  0  0  1  0  0  0  0  0999 V2000
    5.8320   -0.5440   16.5180 C   0  0  0  0  0  0  0  0  0  0  0  0
    4.5550   -0.9790   16.3680 N   0  0  0  0  0  0  0  0  0  0  0  0
    4.1080   -0.2870   15.3060 C   0  0  0  0  0  0  0  0  0  0  0  0
    2.8410   -0.3630   14.7340 C   0  0  0  0  0  0  0  0  0  0  0  0
    1.8540   -1.2510   15.2760 N   0  0  0  0  0  0  0  0  0  0  0  0
    2.5840    0.4300   13.6510 N   0  0  0  0  0  0  0  0  0  0  0  0
    3.5270    1.2810   13.1300 C   0  0  0  0  0  0  0  0  0  0  0  0
    4.8000    1.3370   13.7290 C   0  0  0  0  0  0  0  0  0  0  0  0
    5.0260    0.5400   14.8000 N   0  0  0  0  0  0  0  0  0  0  0  0
    6.1320    0.4040   15.5420 C   0  0  0  0  0  0  0  0  0  0  0  0
    0.5110   -1.4540   14.8150 C   0  0  0  0  0  0  0  0  0  0  0  0
   -0.1200   -2.6650   15.1090 C   0  0  0  0  0  0  0  0  0  0  0  0
   -1.4250   -2.9050   14.6790 C   0  0  0  0  0  0  0  0  0  0  0  0
   -2.1230   -1.9330   13.9450 C   0  0  0  0  0  0  0  0  0  0  0  0
   -1.4980   -0.7140   13.6450 C   0  0  0  0  0  0  0  0  0  0  0  0
   -0.1820   -0.4810   14.0820 C   0  0  0  0  0  0  0  0  0  0  0  0
   -3.4320   -2.1570   13.5070 O   0  0  0  0  0  0  0  0  0  0  0  0
   -4.2630   -3.1720   14.0530 C   0  0  0  0  0  0  0  0  0  0  0  0
   -2.2020    0.2490   12.9130 O   0  0  0  0  0  0  0  0  0  0  0  0
   -1.6510    0.9170   11.7870 C   0  0  0  0  0  0  0  0  0  0  0  0
    3.2040    2.1190   11.9570 C   0  0  0  0  0  0  0  0  0  0  0  0
    4.1300    2.2560   10.9140 C   0  0  0  0  0  0  0  0  0  0  0  0
    3.8320    3.0470    9.8010 C   0  0  0  0  0  0  0  0  0  0  0  0
    2.6050    3.7080    9.7210 C   0  0  0  0  0  0  0  0  0  0  0  0
    1.6650    3.5840   10.7540 C   0  0  0  0  0  0  0  0  0  0  0  0
    1.9730    2.7890   11.8670 C   0  0  0  0  0  0  0  0  0  0  0  0
    0.3700    4.2810   10.6700 C   0  0  0  0  0  0  0  0  0  0  0  0
    0.1700    5.1210    9.7490 O   0  0  0  0  0  0  0  0  0  0  0  0
   -0.6530    3.9990   11.6370 N   0  0  0  0  0  0  0  0  0  0  0  0
   -1.9620    4.5840   11.7000 C   0  0  0  0  0  0  0  0  0  0  0  0
   -2.9050    4.4080   10.6770 C   0  0  0  0  0  0  0  0  0  0  0  0
   -4.1700    4.9940   10.7740 C   0  0  0  0  0  0  0  0  0  0  0  0
   -4.5080    5.7620   11.8950 C   0  0  0  0  0  0  0  0  0  0  0  0
   -3.5660    5.9380   12.9170 C   0  0  0  0  0  0  0  0  0  0  0  0
   -2.3010    5.3520   12.8190 C   0  0  0  0  0  0  0  0  0  0  0  0
   -5.8390    6.3790   11.9990 C   0  0  0  0  0  0  0  0  0  0  0  0
   -6.5050    6.5650   13.1530 N   0  0  0  0  0  0  0  0  0  0  0  0
   -7.6410    7.1400   12.7970 N   0  0  0  0  0  0  0  0  0  0  0  0
   -7.6700    7.3000   11.4830 N   0  0  0  0  0  0  0  0  0  0  0  0
   -6.5530    6.8320   10.9510 N   0  0  0  0  0  0  0  0  0  0  0  0
    6.5283   -0.8894   17.2964 H   0  0  0  0  0  0  0  0  0  0  0  0
    2.1435   -1.8085   16.0922 H   0  0  0  0  0  0  0  0  0  0  0  0
    5.5832    2.0046   13.3406 H   0  0  0  0  0  0  0  0  0  0  0  0
    7.0863    0.9344   15.4080 H   0  0  0  0  0  0  0  0  0  0  0  0
    0.4160   -3.4347   15.6836 H   0  0  0  0  0  0  0  0  0  0  0  0
   -1.9108   -3.8629   14.9168 H   0  0  0  0  0  0  0  0  0  0  0  0
    0.3087    0.4748   13.8461 H   0  0  0  0  0  0  0  0  0  0  0  0
   -4.2250   -3.1256   15.1514 H   0  0  0  0  0  0  0  0  0  0  0  0
   -5.2986   -3.0191   13.7152 H   0  0  0  0  0  0  0  0  0  0  0  0
   -3.9087   -4.1571   13.7152 H   0  0  0  0  0  0  0  0  0  0  0  0
   -0.9857    1.7236   12.1286 H   0  0  0  0  0  0  0  0  0  0  0  0
   -1.0775    0.2008   11.1802 H   0  0  0  0  0  0  0  0  0  0  0  0
   -2.4632    1.3438   11.1802 H   0  0  0  0  0  0  0  0  0  0  0  0
    5.0983    1.7373   10.9718 H   0  0  0  0  0  0  0  0  0  0  0  0
    4.5650    3.1488    8.9872 H   0  0  0  0  0  0  0  0  0  0  0  0
    2.3744    4.3293    8.8431 H   0  0  0  0  0  0  0  0  0  0  0  0
    1.2402    2.6886   12.6812 H   0  0  0  0  0  0  0  0  0  0  0  0
   -0.4234    3.3039   12.3616 H   0  0  0  0  0  0  0  0  0  0  0  0
   -2.6476    3.8054    9.7935 H   0  0  0  0  0  0  0  0  0  0  0  0
   -4.9032    4.8514    9.9664 H   0  0  0  0  0  0  0  0  0  0  0  0
   -3.8233    6.5403   13.8008 H   0  0  0  0  0  0  0  0  0  0  0  0
   -1.5678    5.4955   13.6263 H   0  0  0  0  0  0  0  0  0  0  0  0
   -6.2881    6.8173    9.9558 H   0  0  0  0  0  0  0  0  0  0  0  0
  1  2  1  0
  1 10  2  0
  2  3  2  0
  3  4  1  0
  3  9  1  0
  4  5  1  0
  4  6  2  0
  5 11  1  0
  6  7  1  0
  7  8  2  0
  7 21  1  0
  8  9  1  0
  9 10  1  0
 11 12  2  0
 11 16  1  0
 12 13  1  0
 13 14  2  0
 14 15  1  0
 14 17  1  0
 15 16  2  0
 15 19  1  0
 17 18  1  0
 19 20  1  0
 21 22  2  0
 21 26  1  0
 22 23  1  0
 23 24  2  0
 24 25  1  0
 25 26  2  0
 25 27  1  0
 27 29  1  0
 27 28  2  0
 29 30  1  0
 30 35  1  0
 30 31  2  0
 31 32  1  0
 32 33  2  0
 33 36  1  0
 33 34  1  0
 34 35  2  0
 36 37  2  0
 36 40  1  0
 37 38  1  0
 38 39  2  0
 39 40  1  0
  1 41  1  0
  5 42  1  0
  8 43  1  0
 10 44  1  0
 12 45  1  0
 13 46  1  0
 16 47  1  0
 18 48  1  0
 18 49  1  0
 18 50  1  0
 20 51  1  0
 20 52  1  0
 20 53  1  0
 22 54  1  0
 23 55  1  0
 24 56  1  0
 26 57  1  0
 29 58  1  0
 31 59  1  0
 32 60  1  0
 34 61  1  0
 35 62  1  0
 40 63  1  0
M  END
>  <s_m_entry_id>  (1) 
28

>  <MODEL>  (1) 
1

>  <REMARK>  (1) 
 VINA RESULT:   -10.747      0.000      0.000
 INTER + INTRA:         -16.047
 INTER:                 -15.146
 INTRA:                  -0.902
 UNBOUND:                -0.902
  Name = /scratch/kmzp800/tmpms1n169d/tmpraqvy12p.pdb
  9 active torsions:
  status: ('A' for Active; 'I' for Inactive)
    1  A    between atoms: N2_5  and  C4_6
    2  A    between atoms: C7_9  and  O1_10
    3  A    between atoms: O1_10  and  C8_11
    4  A    between atoms: C9_12  and  O2_13
    5  A    between atoms: O2_13  and  C10_14
    6  A    between atoms: C12_17  and  C13_18
    7  A    between atoms: C17_22  and  C18_23
    8  A    between atoms: N4_25  and  C19_26
    9  A    between atoms: C22_29  and  C23_30
                            x       y       z     vdW  Elec       q    Type
                         _______ _______ _______ _____ _____    ______ ____

>  <TORSDO>  (1) 
F 7

>  <grid_id>  (1) 
syk-prepared

>  <grid_path>  (1) 
syk_vina.pdbqt

>  <grid_filename>  (1) 
syk_vina.pdbqt

>  <docking_score>  (1) 
-10.747

>  <compound_name>  (1) 
CHEMBL3265001

>  <index_string>  (1) 
27:0:0

>  <s_m_Source_Path>  (1) 
/projects/mai/users/kmzp800_harry/pmx_colab/docking_jobs/syk/vina_prep/output

>  <s_m_Source_File>  (1) 
ptp1b_docked_conformers.sdf

>  <i_m_Source_File_Index>  (1) 
28

$$$$
