1:0:0
     RDKit          3D

 37 39  0  0  1  0  0  0  0  0999 V2000
  -14.4476  -14.7713  -27.6597 C   0  0  0  0  0  0  0  0  0  0  0  0
  -15.0344  -15.5980  -26.6838 C   0  0  0  0  0  0  0  0  0  0  0  0
  -14.5364  -13.3750  -27.5456 C   0  0  0  0  0  0  0  0  0  0  0  0
  -15.7547  -15.0164  -25.6134 C   0  0  0  0  0  0  0  0  0  0  0  0
  -14.8483  -16.9877  -26.7612 N   0  0  0  0  0  0  0  0  0  0  0  0
  -15.2481  -12.8019  -26.4848 C   0  0  0  0  0  0  0  0  0  0  0  0
  -15.8749  -13.6149  -25.5200 C   0  0  0  0  0  0  0  0  0  0  0  0
  -16.3711  -15.9445  -24.6101 C   0  0  0  0  0  0  0  0  0  0  0  0
  -16.1179  -17.2409  -24.8115 N   0  0  0  0  0  0  0  0  0  0  0  0
  -17.0519  -15.5725  -23.6610 O   0  0  0  0  0  0  0  0  0  0  0  0
  -15.3647  -17.7694  -25.8591 C   0  0  0  0  0  0  0  0  0  0  0  0
  -15.1949  -19.2484  -25.9389 C   0  0  0  0  0  0  0  0  0  0  0  0
  -14.7808  -19.8349  -27.1454 C   0  0  0  0  0  0  0  0  0  0  0  0
  -14.5441  -21.2095  -27.2172 C   0  0  0  0  0  0  0  0  0  0  0  0
  -14.7406  -22.0466  -26.1037 C   0  0  0  0  0  0  0  0  0  0  0  0
  -15.2084  -21.4663  -24.9051 C   0  0  0  0  0  0  0  0  0  0  0  0
  -15.4332  -20.0803  -24.8222 C   0  0  0  0  0  0  0  0  0  0  0  0
  -14.4472  -23.5413  -26.1840 C   0  0  0  0  0  0  0  0  0  0  0  0
  -14.1694  -23.9711  -27.5146 O   0  0  0  0  0  0  0  0  0  0  0  0
  -13.1758  -23.8328  -25.3693 C   0  0  0  0  0  0  0  0  0  0  0  0
  -15.6817  -24.3238  -25.6946 C   0  0  0  0  0  0  0  0  0  0  0  0
  -13.7511  -15.3183  -28.6845 F   0  0  0  0  0  0  0  0  0  0  0  0
  -14.0642  -12.7413  -28.2794 H   0  0  0  0  0  0  0  0  0  0  0  0
  -15.3130  -11.7298  -26.4091 H   0  0  0  0  0  0  0  0  0  0  0  0
  -16.4296  -13.1654  -24.7074 H   0  0  0  0  0  0  0  0  0  0  0  0
  -16.5419  -17.8925  -24.1691 H   0  0  0  0  0  0  0  0  0  0  0  0
  -14.5822  -19.2281  -28.0206 H   0  0  0  0  0  0  0  0  0  0  0  0
  -14.1682  -21.5724  -28.1524 H   0  0  0  0  0  0  0  0  0  0  0  0
  -15.3869  -22.0864  -24.0363 H   0  0  0  0  0  0  0  0  0  0  0  0
  -15.7727  -19.6778  -23.8783 H   0  0  0  0  0  0  0  0  0  0  0  0
  -13.9544  -24.8938  -27.4942 H   0  0  0  0  0  0  0  0  0  0  0  0
  -12.3527  -23.2284  -25.7458 H   0  0  0  0  0  0  0  0  0  0  0  0
  -12.8488  -24.8701  -25.3945 H   0  0  0  0  0  0  0  0  0  0  0  0
  -13.2869  -23.5655  -24.3222 H   0  0  0  0  0  0  0  0  0  0  0  0
  -16.5610  -24.0136  -26.2563 H   0  0  0  0  0  0  0  0  0  0  0  0
  -15.5740  -25.3933  -25.8774 H   0  0  0  0  0  0  0  0  0  0  0  0
  -15.8992  -24.1590  -24.6380 H   0  0  0  0  0  0  0  0  0  0  0  0
  1  2  2  0
  1  3  1  0
  1 22  1  0
  2  4  1  0
  2  5  1  0
  3  6  2  0
  3 23  1  0
  4  7  2  0
  4  8  1  0
  5 11  2  0
  6  7  1  0
  6 24  1  0
  7 25  1  0
  8  9  1  0
  8 10  2  0
  9 11  1  0
  9 26  1  0
 11 12  1  0
 12 13  2  0
 12 17  1  0
 13 14  1  0
 13 27  1  0
 14 15  2  0
 14 28  1  0
 15 16  1  0
 15 18  1  0
 16 17  2  0
 16 29  1  0
 17 30  1  0
 18 19  1  0
 18 20  1  0
 18 21  1  0
 19 31  1  0
 20 32  1  0
 20 33  1  0
 20 34  1  0
 21 35  1  0
 21 36  1  0
 21 37  1  0
M  END
>  <s_m_entry_id>  (1) 
498

>  <Name>  (1) 
5f

>  <IC50[nM]>  (1) 
30

>  <s_m_Source_Path>  (1) 
/projects/mai/users/kmzp800_harry/pmx_colab/docking_jobs/tnks2

>  <s_m_Source_File>  (1) 
tnks2_lig.sdf

>  <i_m_Source_File_Index>  (1) 
3

>  <s_m_job_name>  (1) 
glide-dock_SP_tnks_mcs_fallabck

>  <r_i_docking_score>  (1) 
-10.3393988476224

>  <r_i_glide_gscore>  (1) 
-10.3393988476224

>  <r_i_glide_emodel>  (1) 
-56.4965842160361

>  <index_string>  (1) 
1:0:0

$$$$
