0:0:0
     RDKit          3D

 42 44  0  0  1  0  0  0  0  0999 V2000
   43.0170   12.1450   17.4490 C   0  0  0  0  0  0  0  0  0  0  0  0
   43.4310   11.3110   18.8540 S   0  0  0  0  0  0  0  0  0  0  0  0
   42.7120    9.8530   18.4460 C   0  0  0  0  0  0  0  0  0  0  0  0
   42.1280    9.9790   17.1880 C   0  0  0  0  0  0  0  0  0  0  0  0
   42.2830   11.2750   16.6230 C   0  0  0  0  0  0  0  0  0  0  0  0
   41.4430   11.8420   14.9860 Br  0  0  0  0  0  0  0  0  0  0  0  0
   44.0000   15.7740   18.0050 C   0  0  0  0  0  0  0  0  0  0  0  0
   43.6750   14.4390   18.2610 C   0  0  0  0  0  0  0  0  0  0  0  0
   43.3880   13.5590   17.2080 C   0  0  0  0  0  0  0  0  0  0  0  0
   43.4170   14.0500   15.8950 C   0  0  0  0  0  0  0  0  0  0  0  0
   43.7420   15.3880   15.6280 C   0  0  0  0  0  0  0  0  0  0  0  0
   44.0340   16.2460   16.6910 C   0  0  0  0  0  0  0  0  0  0  0  0
   43.7770   15.8990   14.2880 N   0  0  0  0  0  0  0  0  0  0  0  0
   42.6210   16.3250   13.5000 C   0  0  0  0  0  0  0  0  0  0  0  0
   41.5830   17.0130   14.3640 C   0  0  0  0  0  0  0  0  0  0  0  0
   40.2500   16.6040   13.7810 C   0  0  0  0  0  0  0  0  0  0  0  0
   40.4700   15.2230   13.2010 C   0  0  0  0  0  0  0  0  0  0  0  0
   41.9390   15.1480   12.8230 C   0  0  0  0  0  0  0  0  0  0  0  0
   42.7220    8.6520   19.2970 C   0  0  0  0  0  0  0  0  0  0  0  0
   41.7330    8.3910   20.0310 O   0  0  0  0  0  0  0  0  0  0  0  0
   43.8170    7.7960   19.3020 O   0  0  0  0  0  0  0  0  0  0  0  0
   41.4570    8.8950   16.6030 O   0  0  0  0  0  0  0  0  0  0  0  0
   40.1680    8.4430   16.9830 C   0  0  0  0  0  0  0  0  0  0  0  0
   39.1700    8.8810   15.9740 C   0  0  0  0  0  0  0  0  0  0  0  0
   39.4350    8.7960   14.7460 O   0  0  0  0  0  0  0  0  0  0  0  0
   37.9260    9.3440   16.3830 O   0  0  0  0  0  0  0  0  0  0  0  0
   44.2292   16.4535   18.8391 H   0  0  0  0  0  0  0  0  0  0  0  0
   43.6441   14.0752   19.2987 H   0  0  0  0  0  0  0  0  0  0  0  0
   43.1808   13.3742   15.0599 H   0  0  0  0  0  0  0  0  0  0  0  0
   44.2916   17.2968   16.4925 H   0  0  0  0  0  0  0  0  0  0  0  0
   44.7014   15.9726   13.8396 H   0  0  0  0  0  0  0  0  0  0  0  0
   43.0120   17.0222   12.7443 H   0  0  0  0  0  0  0  0  0  0  0  0
   41.6666   16.6779   15.4084 H   0  0  0  0  0  0  0  0  0  0  0  0
   41.7116   18.1054   14.3708 H   0  0  0  0  0  0  0  0  0  0  0  0
   39.4800   16.5733   14.5660 H   0  0  0  0  0  0  0  0  0  0  0  0
   39.9016   17.3165   13.0187 H   0  0  0  0  0  0  0  0  0  0  0  0
   40.2295   14.4531   13.9489 H   0  0  0  0  0  0  0  0  0  0  0  0
   39.8234   15.0484   12.3284 H   0  0  0  0  0  0  0  0  0  0  0  0
   42.0543   15.2189   11.7314 H   0  0  0  0  0  0  0  0  0  0  0  0
   42.3832   14.1939   13.1430 H   0  0  0  0  0  0  0  0  0  0  0  0
   40.1685    7.3447   17.0449 H   0  0  0  0  0  0  0  0  0  0  0  0
   39.9064    8.8665   17.9639 H   0  0  0  0  0  0  0  0  0  0  0  0
  1  2  1  0
  1  5  2  0
  1  9  1  0
  2  3  1  0
  3 19  1  0
  3  4  2  0
  4  5  1  0
  4 22  1  0
  5  6  1  0
  7  8  2  0
  7 12  1  0
  7 27  1  0
  8  9  1  0
  8 28  1  0
  9 10  2  0
 10 11  1  0
 10 29  1  0
 11 12  2  0
 11 13  1  0
 12 30  1  0
 13 14  1  0
 13 31  1  0
 14 15  1  0
 14 18  1  0
 14 32  1  0
 15 16  1  0
 15 33  1  0
 15 34  1  0
 16 17  1  0
 16 35  1  0
 16 36  1  0
 17 18  1  0
 17 37  1  0
 17 38  1  0
 18 39  1  0
 18 40  1  0
 19 21  2  0
 19 20  1  0
 22 23  1  0
 23 24  1  0
 23 41  1  0
 23 42  1  0
 24 26  1  0
 24 25  2  0
M  CHG  2  20  -1  26  -1
M  END
>  <s_m_entry_id>  (1) 
1346

>  <MODEL>  (1) 
1

>  <REMARK>  (1) 
 VINA RESULT:    -7.262      0.000      0.000
 INTER + INTRA:         -10.984
 INTER:                 -10.233
 INTRA:                  -0.750
 UNBOUND:                -0.750
  Name = /scratch/kmzp800/tmp05ig6f2t/tmpfxihqtv6.pdb
  7 active torsions:
  status: ('A' for Active; 'I' for Inactive)
    1  A    between atoms: C3_3  and  C4_4
    2  A    between atoms: C5_6  and  C6_7
    3  A    between atoms: C7_10  and  O3_11
    4  A    between atoms: O3_11  and  C8_12
    5  A    between atoms: C8_12  and  C9_13
    6  A    between atoms: C12_19  and  N1_20
    7  A    between atoms: N1_20  and  C13_21
                            x       y       z     vdW  Elec       q    Type
                         _______ _______ _______ _____ _____    ______ ____

>  <TORSDO>  (1) 
F 7

>  <grid_id>  (1) 
ptp1b-prepared

>  <grid_path>  (1) 
ptp1b_vina.pdbqt

>  <grid_filename>  (1) 
ptp1b_vina.pdbqt

>  <docking_score>  (1) 
-7.262

>  <compound_name>  (1) 
lig_23475

>  <index_string>  (1) 
0:0:0

>  <s_m_Source_Path>  (1) 
/projects/mai/users/kmzp800_harry/pmx_colab/docking_jobs/ptp1b/vina_prep

>  <s_m_Source_File>  (1) 
ptp1b_vina_naive_confs.sdf

>  <i_m_Source_File_Index>  (1) 
1

$$$$
