6:0:0
     RDKit          3D

 65 70  0  0  1  0  0  0  0  0999 V2000
   -4.5543   -3.1319   15.5439 C   0  0  0  0  0  0  0  0  0  0  0  0
   -3.8969   -2.2246   14.6741 O   0  0  0  0  0  0  0  0  0  0  0  0
   -2.5384   -2.0566   14.8189 C   0  0  0  0  0  0  0  0  0  0  0  0
   -1.7438   -2.8253   15.6989 C   0  0  0  0  0  0  0  0  0  0  0  0
   -0.3686   -2.5746   15.8172 C   0  0  0  0  0  0  0  0  0  0  0  0
    0.2443   -1.5553   15.0686 C   0  0  0  0  0  0  0  0  0  0  0  0
    1.6084   -1.3266   15.3042 N   0  0  0  0  0  0  0  0  0  0  0  0
    2.5287   -0.4282   14.7284 C   0  0  0  0  0  0  0  0  0  0  0  0
    2.1980    0.3689   13.7480 N   0  0  0  0  0  0  0  0  0  0  0  0
    3.1299    1.2466   13.2278 C   0  0  0  0  0  0  0  0  0  0  0  0
    4.4317    1.2858   13.6794 C   0  0  0  0  0  0  0  0  0  0  0  0
    4.7694    0.4862   14.7208 N   0  0  0  0  0  0  0  0  0  0  0  0
    5.9186    0.3752   15.4808 C   0  0  0  0  0  0  0  0  0  0  0  0
    5.6176   -0.4996   16.4918 C   0  0  0  0  0  0  0  0  0  0  0  0
    4.3683   -1.0594   16.3171 N   0  0  0  0  0  0  0  0  0  0  0  0
    3.8366   -0.4120   15.2886 C   0  0  0  0  0  0  0  0  0  0  0  0
    2.6556    2.1594   12.1574 C   0  0  0  0  0  0  0  0  0  0  0  0
    3.5733    2.6610   11.1953 C   0  0  0  0  0  0  0  0  0  0  0  0
    3.1626    3.4902   10.1403 C   0  0  0  0  0  0  0  0  0  0  0  0
    1.8108    3.8485   10.0390 C   0  0  0  0  0  0  0  0  0  0  0  0
    0.8861    3.3979   11.0090 C   0  0  0  0  0  0  0  0  0  0  0  0
    1.2975    2.5510   12.0638 C   0  0  0  0  0  0  0  0  0  0  0  0
   -0.5422    3.8039   10.8931 C   0  0  0  0  0  0  0  0  0  0  0  0
   -1.2072    3.4571    9.9150 O   0  0  0  0  0  0  0  0  0  0  0  0
   -0.9831    4.5430   11.9292 N   0  0  0  0  0  0  0  0  0  0  0  0
   -2.2562    5.1404   12.1068 C   0  0  0  0  0  0  0  0  0  0  0  0
   -2.7024    5.4238   13.4151 C   0  0  0  0  0  0  0  0  0  0  0  0
   -3.9688    6.0040   13.6256 C   0  0  0  0  0  0  0  0  0  0  0  0
   -4.7931    6.3693   12.5362 C   0  0  0  0  0  0  0  0  0  0  0  0
   -4.3200    6.1127   11.2308 C   0  0  0  0  0  0  0  0  0  0  0  0
   -3.0719    5.4995   11.0150 C   0  0  0  0  0  0  0  0  0  0  0  0
   -6.1032    7.0187   12.7333 C   0  0  0  0  0  0  0  0  0  0  0  0
   -6.6464    8.0837   11.9533 C   0  0  0  0  0  0  0  0  0  0  0  0
   -7.8408    8.4585   12.4024 N   0  0  0  0  0  0  0  0  0  0  0  0
   -8.0783    7.6259   13.4424 N   0  0  0  0  0  0  0  0  0  0  0  0
   -7.0520    6.7332   13.6729 C   0  0  0  0  0  0  0  0  0  0  0  0
   -0.5426   -0.8167   14.1629 C   0  0  0  0  0  0  0  0  0  0  0  0
   -1.9279   -1.0551   14.0314 C   0  0  0  0  0  0  0  0  0  0  0  0
   -2.7399   -0.3169   13.1947 O   0  0  0  0  0  0  0  0  0  0  0  0
   -2.1718    0.7206   12.3967 C   0  0  0  0  0  0  0  0  0  0  0  0
   -5.6245   -3.1047   15.3502 H   0  0  0  0  0  0  0  0  0  0  0  0
   -4.2259   -4.1630   15.3907 H   0  0  0  0  0  0  0  0  0  0  0  0
   -4.4071   -2.8545   16.5852 H   0  0  0  0  0  0  0  0  0  0  0  0
   -2.1648   -3.6004   16.3165 H   0  0  0  0  0  0  0  0  0  0  0  0
    0.2159   -3.1682   16.5052 H   0  0  0  0  0  0  0  0  0  0  0  0
    2.0048   -1.8414   16.0840 H   0  0  0  0  0  0  0  0  0  0  0  0
    5.1987    1.9545   13.3033 H   0  0  0  0  0  0  0  0  0  0  0  0
    6.7806    0.9819   15.2420 H   0  0  0  0  0  0  0  0  0  0  0  0
    6.1581   -0.7836   17.3677 H   0  0  0  0  0  0  0  0  0  0  0  0
    4.6146    2.3812   11.2386 H   0  0  0  0  0  0  0  0  0  0  0  0
    3.8847    3.8286    9.4112 H   0  0  0  0  0  0  0  0  0  0  0  0
    1.4933    4.4911    9.2292 H   0  0  0  0  0  0  0  0  0  0  0  0
    0.5884    2.1918   12.7985 H   0  0  0  0  0  0  0  0  0  0  0  0
   -0.3258    4.6907   12.6840 H   0  0  0  0  0  0  0  0  0  0  0  0
   -2.0801    5.2032   14.2746 H   0  0  0  0  0  0  0  0  0  0  0  0
   -4.2851    6.2087   14.6380 H   0  0  0  0  0  0  0  0  0  0  0  0
   -4.9151    6.3838   10.3709 H   0  0  0  0  0  0  0  0  0  0  0  0
   -2.7394    5.3331   10.0008 H   0  0  0  0  0  0  0  0  0  0  0  0
   -6.2099    8.5920   11.1008 H   0  0  0  0  0  0  0  0  0  0  0  0
   -8.9372    7.6640   13.9729 H   0  0  0  0  0  0  0  0  0  0  0  0
   -7.0856    6.0042   14.4720 H   0  0  0  0  0  0  0  0  0  0  0  0
   -0.0990   -0.0323   13.5864 H   0  0  0  0  0  0  0  0  0  0  0  0
   -2.9409    1.1980   11.7839 H   0  0  0  0  0  0  0  0  0  0  0  0
   -1.7273    1.4971   13.0132 H   0  0  0  0  0  0  0  0  0  0  0  0
   -1.4146    0.3313   11.7171 H   0  0  0  0  0  0  0  0  0  0  0  0
  1  2  1  0
  1 41  1  0
  1 42  1  0
  1 43  1  0
  2  3  1  0
  3  4  2  0
  3 38  1  0
  4  5  1  0
  4 44  1  0
  5  6  2  0
  5 45  1  0
  6  7  1  0
  6 37  1  0
  7  8  1  0
  7 46  1  0
  8  9  2  0
  8 16  1  0
  9 10  1  0
 10 11  2  0
 10 17  1  0
 11 12  1  0
 11 47  1  0
 12 13  1  0
 12 16  1  0
 13 14  2  0
 13 48  1  0
 14 15  1  0
 14 49  1  0
 15 16  2  0
 17 18  2  0
 17 22  1  0
 18 19  1  0
 18 50  1  0
 19 20  2  0
 19 51  1  0
 20 21  1  0
 20 52  1  0
 21 22  2  0
 21 23  1  0
 22 53  1  0
 23 24  2  0
 23 25  1  0
 25 26  1  0
 25 54  1  0
 26 27  2  0
 26 31  1  0
 27 28  1  0
 27 55  1  0
 28 29  2  0
 28 56  1  0
 29 30  1  0
 29 32  1  0
 30 31  2  0
 30 57  1  0
 31 58  1  0
 32 33  1  0
 32 36  2  0
 33 34  2  0
 33 59  1  0
 34 35  1  0
 35 36  1  0
 35 60  1  0
 36 61  1  0
 37 38  2  0
 37 62  1  0
 38 39  1  0
 39 40  1  0
 40 63  1  0
 40 64  1  0
 40 65  1  0
M  END
>  <s_m_entry_id>  (1) 
1090

>  <IC50[nM]>  (1) 
11

>  <s_m_Source_Path>  (1) 
/projects/mai/users/kmzp800_harry/pmx_colab/docking_jobs/syk

>  <s_m_Source_File>  (1) 
tnks2_lig.sdf

>  <i_m_Source_File_Index>  (1) 
7

>  <s_m_job_name>  (1) 
glide-dock_SP_syk_mcs

>  <r_i_docking_score>  (1) 
-7.27058596204064

>  <r_i_glide_gscore>  (1) 
-7.27058596204064

>  <r_i_glide_emodel>  (1) 
-64.9939709217502

>  <index_string>  (1) 
6:0:0

$$$$
