28:0:0
     RDKit          3D

 62 66  0  0  1  0  0  0  0  0999 V2000
    5.8440   -0.5100   16.3490 C   0  0  0  0  0  0  0  0  0  0  0  0
    4.5650   -0.9560   16.2480 N   0  0  0  0  0  0  0  0  0  0  0  0
    4.0600   -0.2380   15.2310 C   0  0  0  0  0  0  0  0  0  0  0  0
    2.7670   -0.3130   14.7190 C   0  0  0  0  0  0  0  0  0  0  0  0
    1.8110   -1.2260   15.2780 N   0  0  0  0  0  0  0  0  0  0  0  0
    2.4520    0.5090   13.6760 N   0  0  0  0  0  0  0  0  0  0  0  0
    3.3560    1.3840   13.1330 C   0  0  0  0  0  0  0  0  0  0  0  0
    4.6570    1.4400   13.6710 C   0  0  0  0  0  0  0  0  0  0  0  0
    4.9430    0.6140   14.7050 N   0  0  0  0  0  0  0  0  0  0  0  0
    6.0850    0.4690   15.3890 C   0  0  0  0  0  0  0  0  0  0  0  0
    0.4520   -1.4150   14.8590 C   0  0  0  0  0  0  0  0  0  0  0  0
   -0.2910   -2.5450   15.2240 C   0  0  0  0  0  0  0  0  0  0  0  0
   -1.6110   -2.6930   14.7950 C   0  0  0  0  0  0  0  0  0  0  0  0
   -2.2120   -1.7100   13.9930 C   0  0  0  0  0  0  0  0  0  0  0  0
   -1.4750   -0.5740   13.6220 C   0  0  0  0  0  0  0  0  0  0  0  0
   -0.1460   -0.4370   14.0580 C   0  0  0  0  0  0  0  0  0  0  0  0
   -3.5330   -1.8400   13.5540 O   0  0  0  0  0  0  0  0  0  0  0  0
   -4.0350   -3.0350   12.9690 C   0  0  0  0  0  0  0  0  0  0  0  0
   -2.0780    0.4010   12.8210 O   0  0  0  0  0  0  0  0  0  0  0  0
   -1.5310    0.8240   11.5810 C   0  0  0  0  0  0  0  0  0  0  0  0
    2.9570    2.2500   12.0040 C   0  0  0  0  0  0  0  0  0  0  0  0
    3.8590    2.5590   10.9740 C   0  0  0  0  0  0  0  0  0  0  0  0
    3.4680    3.3780    9.9130 C   0  0  0  0  0  0  0  0  0  0  0  0
    2.1710    3.8960    9.8710 C   0  0  0  0  0  0  0  0  0  0  0  0
    1.2570    3.5990   10.8900 C   0  0  0  0  0  0  0  0  0  0  0  0
    1.6580    2.7760   11.9520 C   0  0  0  0  0  0  0  0  0  0  0  0
   -0.1120    4.1450   10.8490 C   0  0  0  0  0  0  0  0  0  0  0  0
   -0.5360    4.6880    9.7930 O   0  0  0  0  0  0  0  0  0  0  0  0
   -0.9500    4.0530   12.0120 N   0  0  0  0  0  0  0  0  0  0  0  0
   -2.2960    4.5290   12.1400 C   0  0  0  0  0  0  0  0  0  0  0  0
   -3.3740    3.8910   11.5110 C   0  0  0  0  0  0  0  0  0  0  0  0
   -4.6730    4.3840   11.6600 C   0  0  0  0  0  0  0  0  0  0  0  0
   -4.9130    5.5240   12.4410 C   0  0  0  0  0  0  0  0  0  0  0  0
   -3.8340    6.1610   13.0690 C   0  0  0  0  0  0  0  0  0  0  0  0
   -2.5360    5.6660   12.9190 C   0  0  0  0  0  0  0  0  0  0  0  0
   -6.2810    6.0460   12.5990 C   0  0  0  0  0  0  0  0  0  0  0  0
   -6.6240    6.6210   13.6670 O   0  0  0  0  0  0  0  0  0  0  0  0
   -7.2340    5.9030   11.5490 N   0  0  0  0  0  0  0  0  0  0  0  0
    6.5813   -0.8696   17.0819 H   0  0  0  0  0  0  0  0  0  0  0  0
    2.1352   -1.8076   16.0638 H   0  0  0  0  0  0  0  0  0  0  0  0
    5.4125    2.1293   13.2659 H   0  0  0  0  0  0  0  0  0  0  0  0
    7.0260    1.0146   15.2250 H   0  0  0  0  0  0  0  0  0  0  0  0
    0.1690   -3.3212   15.8532 H   0  0  0  0  0  0  0  0  0  0  0  0
   -2.1839   -3.5854   15.0872 H   0  0  0  0  0  0  0  0  0  0  0  0
    0.4319    0.4519   13.7651 H   0  0  0  0  0  0  0  0  0  0  0  0
   -4.3297   -3.7365   13.7634 H   0  0  0  0  0  0  0  0  0  0  0  0
   -4.9099   -2.7986   12.3455 H   0  0  0  0  0  0  0  0  0  0  0  0
   -3.2538   -3.4943   12.3455 H   0  0  0  0  0  0  0  0  0  0  0  0
   -0.6732    1.4873   11.7659 H   0  0  0  0  0  0  0  0  0  0  0  0
   -1.1986   -0.0543   11.0082 H   0  0  0  0  0  0  0  0  0  0  0  0
   -2.2974    1.3667   11.0082 H   0  0  0  0  0  0  0  0  0  0  0  0
    4.8810    2.1531   11.0029 H   0  0  0  0  0  0  0  0  0  0  0  0
    4.1812    3.6155    9.1099 H   0  0  0  0  0  0  0  0  0  0  0  0
    1.8661    4.5404    9.0333 H   0  0  0  0  0  0  0  0  0  0  0  0
    0.9443    2.5398   12.7550 H   0  0  0  0  0  0  0  0  0  0  0  0
   -0.5411    3.5975   12.8404 H   0  0  0  0  0  0  0  0  0  0  0  0
   -3.1963    2.9964   10.8961 H   0  0  0  0  0  0  0  0  0  0  0  0
   -5.5117    3.8753   11.1622 H   0  0  0  0  0  0  0  0  0  0  0  0
   -4.0101    7.0561   13.6837 H   0  0  0  0  0  0  0  0  0  0  0  0
   -1.6969    6.1739   13.4169 H   0  0  0  0  0  0  0  0  0  0  0  0
   -8.1889    6.2706   11.6666 H   0  0  0  0  0  0  0  0  0  0  0  0
   -6.9678    5.4321   10.6725 H   0  0  0  0  0  0  0  0  0  0  0  0
  1  2  1  0
  1 10  2  0
  2  3  2  0
  3  4  1  0
  3  9  1  0
  4  5  1  0
  4  6  2  0
  5 11  1  0
  6  7  1  0
  7  8  2  0
  7 21  1  0
  8  9  1  0
  9 10  1  0
 11 12  2  0
 11 16  1  0
 12 13  1  0
 13 14  2  0
 14 15  1  0
 14 17  1  0
 15 16  2  0
 15 19  1  0
 17 18  1  0
 19 20  1  0
 21 22  2  0
 21 26  1  0
 22 23  1  0
 23 24  2  0
 24 25  1  0
 25 26  2  0
 25 27  1  0
 27 29  1  0
 27 28  2  0
 29 30  1  0
 30 35  1  0
 30 31  2  0
 31 32  1  0
 32 33  2  0
 33 36  1  0
 33 34  1  0
 34 35  2  0
 36 37  2  0
 36 38  1  0
  1 39  1  0
  5 40  1  0
  8 41  1  0
 10 42  1  0
 12 43  1  0
 13 44  1  0
 16 45  1  0
 18 46  1  0
 18 47  1  0
 18 48  1  0
 20 49  1  0
 20 50  1  0
 20 51  1  0
 22 52  1  0
 23 53  1  0
 24 54  1  0
 26 55  1  0
 29 56  1  0
 31 57  1  0
 32 58  1  0
 34 59  1  0
 35 60  1  0
 38 61  1  0
 38 62  1  0
M  END
>  <s_m_entry_id>  (1) 
888

>  <MODEL>  (1) 
1

>  <REMARK>  (1) 
 VINA RESULT:   -10.873      0.000      0.000
 INTER + INTRA:         -16.097
 INTER:                 -15.204
 INTRA:                  -0.893
 UNBOUND:                -0.775
  Name = /scratch/kmzp800/tmpx2ei4icz/tmpy2hok41y.pdb
  9 active torsions:
  status: ('A' for Active; 'I' for Inactive)
    1  A    between atoms: N2_5  and  C4_6
    2  A    between atoms: C7_9  and  O1_10
    3  A    between atoms: O1_10  and  C8_11
    4  A    between atoms: C9_12  and  O2_13
    5  A    between atoms: O2_13  and  C10_14
    6  A    between atoms: C12_17  and  C13_18
    7  A    between atoms: C17_22  and  C18_23
    8  A    between atoms: N4_25  and  C19_26
    9  A    between atoms: C22_29  and  C23_30
                            x       y       z     vdW  Elec       q    Type
                         _______ _______ _______ _____ _____    ______ ____

>  <TORSDO>  (1) 
F 7

>  <grid_id>  (1) 
syk-prepared

>  <grid_path>  (1) 
syk_vina.pdbqt

>  <grid_filename>  (1) 
syk_vina.pdbqt

>  <docking_score>  (1) 
-10.873

>  <compound_name>  (1) 
CHEMBL3264999

>  <index_string>  (1) 
28:0:0

>  <s_m_Source_Path>  (1) 
/projects/mai/users/kmzp800_harry/pmx_colab/docking_jobs/syk/vina_prep/output

>  <s_m_Source_File>  (1) 
ptp1b_docked_conformers.sdf

>  <i_m_Source_File_Index>  (1) 
712

$$$$
