9:0:0
     RDKit          3D

 50 54  0  0  1  0  0  0  0  0999 V2000
   -4.5764   -3.2662   15.0146 C   0  0  0  0  0  0  0  0  0  0  0  0
   -3.9428   -2.1383   14.4195 O   0  0  0  0  0  0  0  0  0  0  0  0
   -2.5892   -1.9654   14.6329 C   0  0  0  0  0  0  0  0  0  0  0  0
   -1.8017   -2.8305   15.4327 C   0  0  0  0  0  0  0  0  0  0  0  0
   -0.4289   -2.5847   15.6156 C   0  0  0  0  0  0  0  0  0  0  0  0
    0.1927   -1.4711   15.0141 C   0  0  0  0  0  0  0  0  0  0  0  0
    1.5597   -1.2784   15.2897 N   0  0  0  0  0  0  0  0  0  0  0  0
    2.5210   -0.4178   14.7333 C   0  0  0  0  0  0  0  0  0  0  0  0
    2.2045    0.3832   13.7499 N   0  0  0  0  0  0  0  0  0  0  0  0
    3.1327    1.2671   13.2398 C   0  0  0  0  0  0  0  0  0  0  0  0
    4.4370    1.2932   13.6835 C   0  0  0  0  0  0  0  0  0  0  0  0
    4.7672    0.4792   14.7177 N   0  0  0  0  0  0  0  0  0  0  0  0
    5.9057    0.3953   15.4922 C   0  0  0  0  0  0  0  0  0  0  0  0
    5.6045   -0.4952   16.4942 C   0  0  0  0  0  0  0  0  0  0  0  0
    4.3556   -1.0582   16.3225 N   0  0  0  0  0  0  0  0  0  0  0  0
    3.8284   -0.4151   15.2881 C   0  0  0  0  0  0  0  0  0  0  0  0
    2.6539    2.2349   12.2193 C   0  0  0  0  0  0  0  0  0  0  0  0
    3.5297    2.7428   11.2266 C   0  0  0  0  0  0  0  0  0  0  0  0
    3.0727    3.6096   10.2144 C   0  0  0  0  0  0  0  0  0  0  0  0
    1.7233    4.0068   10.1855 C   0  0  0  0  0  0  0  0  0  0  0  0
    1.2598    4.8276    9.1822 O   0  0  0  0  0  0  0  0  0  0  0  0
   -0.1468    4.7645    8.8862 C   0  0  0  0  0  0  0  0  0  0  0  0
   -1.0242    4.6313   10.1473 C   0  0  0  0  0  0  0  0  0  0  0  0
   -2.1868    5.0257   10.1517 O   0  0  0  0  0  0  0  0  0  0  0  0
   -0.4782    4.0257   11.2084 N   0  0  0  0  0  0  0  0  0  0  0  0
    0.8568    3.5739   11.2103 C   0  0  0  0  0  0  0  0  0  0  0  0
    1.3169    2.7016   12.2171 C   0  0  0  0  0  0  0  0  0  0  0  0
   -0.5981   -0.6083   14.2179 C   0  0  0  0  0  0  0  0  0  0  0  0
   -1.9789   -0.8492   14.0168 C   0  0  0  0  0  0  0  0  0  0  0  0
   -2.7866   -0.0251   13.2598 O   0  0  0  0  0  0  0  0  0  0  0  0
   -2.1678    0.9676   12.4473 C   0  0  0  0  0  0  0  0  0  0  0  0
   -5.6347   -3.2714   14.7495 H   0  0  0  0  0  0  0  0  0  0  0  0
   -4.5039   -3.2371   16.1047 H   0  0  0  0  0  0  0  0  0  0  0  0
   -4.1392   -4.2001   14.6550 H   0  0  0  0  0  0  0  0  0  0  0  0
   -2.2270   -3.6881   15.9359 H   0  0  0  0  0  0  0  0  0  0  0  0
    0.1426   -3.2553   16.2445 H   0  0  0  0  0  0  0  0  0  0  0  0
    1.9454   -1.8856   16.0017 H   0  0  0  0  0  0  0  0  0  0  0  0
    5.1942    1.9931   13.3472 H   0  0  0  0  0  0  0  0  0  0  0  0
    6.7585    1.0253   15.2892 H   0  0  0  0  0  0  0  0  0  0  0  0
    6.1314   -0.7469   17.3869 H   0  0  0  0  0  0  0  0  0  0  0  0
    4.5617    2.4287   11.2077 H   0  0  0  0  0  0  0  0  0  0  0  0
    3.7567    3.9564    9.4537 H   0  0  0  0  0  0  0  0  0  0  0  0
   -0.4332    5.6624    8.3372 H   0  0  0  0  0  0  0  0  0  0  0  0
   -0.3388    3.9206    8.2199 H   0  0  0  0  0  0  0  0  0  0  0  0
   -1.0426    3.8782   12.0309 H   0  0  0  0  0  0  0  0  0  0  0  0
    0.6343    2.3721   12.9865 H   0  0  0  0  0  0  0  0  0  0  0  0
   -0.1693    0.2766   13.7875 H   0  0  0  0  0  0  0  0  0  0  0  0
   -2.9189    1.4324   11.8094 H   0  0  0  0  0  0  0  0  0  0  0  0
   -1.7293    1.7600   13.0574 H   0  0  0  0  0  0  0  0  0  0  0  0
   -1.3995    0.5382   11.7989 H   0  0  0  0  0  0  0  0  0  0  0  0
  1  2  1  0
  1 32  1  0
  1 33  1  0
  1 34  1  0
  2  3  1  0
  3  4  2  0
  3 29  1  0
  4  5  1  0
  4 35  1  0
  5  6  2  0
  5 36  1  0
  6  7  1  0
  6 28  1  0
  7  8  1  0
  7 37  1  0
  8  9  2  0
  8 16  1  0
  9 10  1  0
 10 11  2  0
 10 17  1  0
 11 12  1  0
 11 38  1  0
 12 13  1  0
 12 16  1  0
 13 14  2  0
 13 39  1  0
 14 15  1  0
 14 40  1  0
 15 16  2  0
 17 18  2  0
 17 27  1  0
 18 19  1  0
 18 41  1  0
 19 20  2  0
 19 42  1  0
 20 21  1  0
 20 26  1  0
 21 22  1  0
 22 23  1  0
 22 43  1  0
 22 44  1  0
 23 24  2  0
 23 25  1  0
 25 26  1  0
 25 45  1  0
 26 27  2  0
 27 46  1  0
 28 29  2  0
 28 47  1  0
 29 30  1  0
 30 31  1  0
 31 48  1  0
 31 49  1  0
 31 50  1  0
M  END
>  <s_m_entry_id>  (1) 
997

>  <IC50[nM]>  (1) 
2.3

>  <s_m_Source_Path>  (1) 
/projects/mai/users/kmzp800_harry/pmx_colab/docking_jobs/syk

>  <s_m_Source_File>  (1) 
tnks2_lig.sdf

>  <i_m_Source_File_Index>  (1) 
10

>  <s_m_job_name>  (1) 
glide-dock_SP_tnks2_core_const

>  <r_i_docking_score>  (1) 
-7.3275055034822

>  <r_i_glide_gscore>  (1) 
-7.3275055034822

>  <r_i_glide_emodel>  (1) 
-52.8776009624483

>  <index_string>  (1) 
9:0:0

$$$$
