5:0:0
     RDKit          3D

 48 51  0  0  1  0  0  0  0  0999 V2000
   -4.5574   -3.1606   15.5459 C   0  0  0  0  0  0  0  0  0  0  0  0
   -3.9090   -2.2251   14.6958 O   0  0  0  0  0  0  0  0  0  0  0  0
   -2.5465   -2.0627   14.8314 C   0  0  0  0  0  0  0  0  0  0  0  0
   -1.7476   -2.8344   15.7086 C   0  0  0  0  0  0  0  0  0  0  0  0
   -0.3684   -2.5945   15.8165 C   0  0  0  0  0  0  0  0  0  0  0  0
    0.2457   -1.5727   15.0663 C   0  0  0  0  0  0  0  0  0  0  0  0
    1.6169   -1.3552   15.2866 N   0  0  0  0  0  0  0  0  0  0  0  0
    2.5357   -0.4391   14.7277 C   0  0  0  0  0  0  0  0  0  0  0  0
    2.1995    0.3699   13.7589 N   0  0  0  0  0  0  0  0  0  0  0  0
    3.1288    1.2516   13.2380 C   0  0  0  0  0  0  0  0  0  0  0  0
    4.4335    1.2888   13.6838 C   0  0  0  0  0  0  0  0  0  0  0  0
    4.7706    0.4833   14.7195 N   0  0  0  0  0  0  0  0  0  0  0  0
    5.9165    0.3836   15.4867 C   0  0  0  0  0  0  0  0  0  0  0  0
    5.6159   -0.4963   16.4986 C   0  0  0  0  0  0  0  0  0  0  0  0
    4.3727   -1.0651   16.3174 N   0  0  0  0  0  0  0  0  0  0  0  0
    3.8431   -0.4162   15.2882 C   0  0  0  0  0  0  0  0  0  0  0  0
    2.6490    2.1607   12.1634 C   0  0  0  0  0  0  0  0  0  0  0  0
    1.2946    2.5518   12.0716 C   0  0  0  0  0  0  0  0  0  0  0  0
    0.8661    3.3814   11.0192 C   0  0  0  0  0  0  0  0  0  0  0  0
    1.7798    3.8440   10.0462 C   0  0  0  0  0  0  0  0  0  0  0  0
    1.2754    4.7525    8.9746 C   0  0  0  0  0  0  0  0  0  0  0  0
    0.2304    4.5092    8.3776 O   0  0  0  0  0  0  0  0  0  0  0  0
    1.9898    5.8580    8.7550 N   0  0  0  0  0  0  0  0  0  0  0  0
    3.1342    3.4836   10.1420 C   0  0  0  0  0  0  0  0  0  0  0  0
    4.0299    3.9272    9.2335 F   0  0  0  0  0  0  0  0  0  0  0  0
    3.5588    2.6584   11.1954 C   0  0  0  0  0  0  0  0  0  0  0  0
   -0.5483   -0.8195   14.1741 C   0  0  0  0  0  0  0  0  0  0  0  0
   -1.9357   -1.0578   14.0482 C   0  0  0  0  0  0  0  0  0  0  0  0
   -2.7455   -0.3306   13.2012 O   0  0  0  0  0  0  0  0  0  0  0  0
   -2.1606    0.6629   12.3690 C   0  0  0  0  0  0  0  0  0  0  0  0
   -5.6272   -3.1557   15.3373 H   0  0  0  0  0  0  0  0  0  0  0  0
   -4.1948   -4.1756   15.3764 H   0  0  0  0  0  0  0  0  0  0  0  0
   -4.4255   -2.9026   16.5977 H   0  0  0  0  0  0  0  0  0  0  0  0
   -2.1694   -3.6090   16.3273 H   0  0  0  0  0  0  0  0  0  0  0  0
    0.2122   -3.1942   16.5043 H   0  0  0  0  0  0  0  0  0  0  0  0
    2.0348   -1.9508   15.9910 H   0  0  0  0  0  0  0  0  0  0  0  0
    5.1951    1.9719   13.3223 H   0  0  0  0  0  0  0  0  0  0  0  0
    6.7804    1.0009   15.2694 H   0  0  0  0  0  0  0  0  0  0  0  0
    6.1453   -0.7738   17.3757 H   0  0  0  0  0  0  0  0  0  0  0  0
    0.5812    2.2057   12.8032 H   0  0  0  0  0  0  0  0  0  0  0  0
   -0.1744    3.6659   10.9573 H   0  0  0  0  0  0  0  0  0  0  0  0
    1.6874    6.5214    8.0556 H   0  0  0  0  0  0  0  0  0  0  0  0
    2.8289    6.0235    9.2910 H   0  0  0  0  0  0  0  0  0  0  0  0
    4.6002    2.3797   11.2300 H   0  0  0  0  0  0  0  0  0  0  0  0
   -0.1020   -0.0394   13.5868 H   0  0  0  0  0  0  0  0  0  0  0  0
   -2.9333    1.1024   11.7386 H   0  0  0  0  0  0  0  0  0  0  0  0
   -1.7225    1.4690   12.9583 H   0  0  0  0  0  0  0  0  0  0  0  0
   -1.4025    0.2387   11.7093 H   0  0  0  0  0  0  0  0  0  0  0  0
  1  2  1  0
  1 31  1  0
  1 32  1  0
  1 33  1  0
  2  3  1  0
  3  4  2  0
  3 28  1  0
  4  5  1  0
  4 34  1  0
  5  6  2  0
  5 35  1  0
  6  7  1  0
  6 27  1  0
  7  8  1  0
  7 36  1  0
  8  9  2  0
  8 16  1  0
  9 10  1  0
 10 11  2  0
 10 17  1  0
 11 12  1  0
 11 37  1  0
 12 13  1  0
 12 16  1  0
 13 14  2  0
 13 38  1  0
 14 15  1  0
 14 39  1  0
 15 16  2  0
 17 18  2  0
 17 26  1  0
 18 19  1  0
 18 40  1  0
 19 20  2  0
 19 41  1  0
 20 21  1  0
 20 24  1  0
 21 22  2  0
 21 23  1  0
 23 42  1  0
 23 43  1  0
 24 25  1  0
 24 26  2  0
 26 44  1  0
 27 28  2  0
 27 45  1  0
 28 29  1  0
 29 30  1  0
 30 46  1  0
 30 47  1  0
 30 48  1  0
M  END
>  <s_m_entry_id>  (1) 
1092

>  <IC50[nM]>  (1) 
18.6

>  <s_m_Source_Path>  (1) 
/projects/mai/users/kmzp800_harry/pmx_colab/docking_jobs/syk

>  <s_m_Source_File>  (1) 
tnks2_lig.sdf

>  <i_m_Source_File_Index>  (1) 
6

>  <s_m_job_name>  (1) 
glide-dock_SP_syk_mcs

>  <r_i_docking_score>  (1) 
-7.03226988217658

>  <r_i_glide_gscore>  (1) 
-7.03226988217658

>  <r_i_glide_emodel>  (1) 
-48.2636869312201

>  <index_string>  (1) 
5:0:0

$$$$
