25:0:0
     RDKit          3D

 44 46  0  0  1  0  0  0  0  0999 V2000
  -15.2061  -19.2756  -25.9346 C   0  0  0  0  0  0  0  0  0  0  0  0
  -15.4361  -20.1051  -24.8234 C   0  0  0  0  0  0  0  0  0  0  0  0
  -14.7796  -19.8500  -27.1388 C   0  0  0  0  0  0  0  0  0  0  0  0
  -15.3667  -17.8016  -25.8462 C   0  0  0  0  0  0  0  0  0  0  0  0
  -15.2196  -21.4764  -24.9284 C   0  0  0  0  0  0  0  0  0  0  0  0
  -14.5511  -21.2250  -27.2269 C   0  0  0  0  0  0  0  0  0  0  0  0
  -14.7583  -22.0711  -26.1195 C   0  0  0  0  0  0  0  0  0  0  0  0
  -16.1212  -17.2492  -24.8134 N   0  0  0  0  0  0  0  0  0  0  0  0
  -16.3617  -15.9499  -24.6031 C   0  0  0  0  0  0  0  0  0  0  0  0
  -14.8481  -17.0219  -26.7440 N   0  0  0  0  0  0  0  0  0  0  0  0
  -15.0242  -15.6352  -26.6734 C   0  0  0  0  0  0  0  0  0  0  0  0
  -15.7435  -15.0328  -25.6150 C   0  0  0  0  0  0  0  0  0  0  0  0
  -15.8523  -13.6305  -25.5489 C   0  0  0  0  0  0  0  0  0  0  0  0
  -15.2283  -12.8421  -26.5342 C   0  0  0  0  0  0  0  0  0  0  0  0
  -14.5212  -13.4426  -27.5887 C   0  0  0  0  0  0  0  0  0  0  0  0
  -14.4378  -14.8401  -27.6697 C   0  0  0  0  0  0  0  0  0  0  0  0
  -17.0495  -15.5710  -23.6600 O   0  0  0  0  0  0  0  0  0  0  0  0
  -14.4713  -23.5780  -26.1954 C   0  0  0  0  0  0  0  0  0  0  0  0
  -13.2189  -23.8569  -25.3317 C   0  0  0  0  0  0  0  0  0  0  0  0
  -15.7294  -24.3285  -25.7052 C   0  0  0  0  0  0  0  0  0  0  0  0
  -14.1137  -23.9557  -27.5382 O   0  0  0  0  0  0  0  0  0  0  0  0
  -15.3252  -11.5091  -26.4881 F   0  0  0  0  0  0  0  0  0  0  0  0
  -14.5037  -25.2107  -28.1260 C   0  0  0  0  0  0  0  0  0  0  0  0
  -13.8707  -26.4801  -27.5319 C   0  0  0  0  0  0  0  0  0  0  0  0
  -12.5693  -26.7167  -28.0242 O   0  0  0  0  0  0  0  0  0  0  0  0
  -15.7623  -19.6979  -23.8791 H   0  0  0  0  0  0  0  0  0  0  0  0
  -14.5983  -19.2510  -28.0124 H   0  0  0  0  0  0  0  0  0  0  0  0
  -15.3712  -22.0945  -24.0403 H   0  0  0  0  0  0  0  0  0  0  0  0
  -14.1919  -21.5905  -28.1687 H   0  0  0  0  0  0  0  0  0  0  0  0
  -16.5515  -17.8711  -24.1500 H   0  0  0  0  0  0  0  0  0  0  0  0
  -16.4056  -13.1714  -24.7446 H   0  0  0  0  0  0  0  0  0  0  0  0
  -14.0553  -12.8252  -28.3418 H   0  0  0  0  0  0  0  0  0  0  0  0
  -13.8949  -15.2995  -28.4824 H   0  0  0  0  0  0  0  0  0  0  0  0
  -12.3899  -23.2262  -25.6568 H   0  0  0  0  0  0  0  0  0  0  0  0
  -13.3994  -23.6301  -24.2813 H   0  0  0  0  0  0  0  0  0  0  0  0
  -12.8447  -24.8764  -25.3894 H   0  0  0  0  0  0  0  0  0  0  0  0
  -16.6051  -24.0335  -26.2874 H   0  0  0  0  0  0  0  0  0  0  0  0
  -15.6551  -25.4071  -25.8000 H   0  0  0  0  0  0  0  0  0  0  0  0
  -15.9442  -24.1111  -24.6594 H   0  0  0  0  0  0  0  0  0  0  0  0
  -14.2446  -25.1977  -29.1825 H   0  0  0  0  0  0  0  0  0  0  0  0
  -15.5874  -25.3219  -28.0795 H   0  0  0  0  0  0  0  0  0  0  0  0
  -14.4795  -27.3479  -27.8077 H   0  0  0  0  0  0  0  0  0  0  0  0
  -13.8383  -26.4536  -26.4515 H   0  0  0  0  0  0  0  0  0  0  0  0
  -12.2302  -27.4936  -27.6041 H   0  0  0  0  0  0  0  0  0  0  0  0
  1  2  2  0
  1  3  1  0
  1  4  1  0
  2  5  1  0
  2 26  1  0
  3  6  2  0
  3 27  1  0
  4  8  1  0
  4 10  2  0
  5  7  2  0
  5 28  1  0
  6  7  1  0
  6 29  1  0
  7 18  1  0
  8  9  1  0
  8 30  1  0
  9 12  1  0
  9 17  2  0
 10 11  1  0
 11 12  2  0
 11 16  1  0
 12 13  1  0
 13 14  2  0
 13 31  1  0
 14 15  1  0
 14 22  1  0
 15 16  2  0
 15 32  1  0
 16 33  1  0
 18 19  1  0
 18 20  1  0
 18 21  1  0
 19 34  1  0
 19 35  1  0
 19 36  1  0
 20 37  1  0
 20 38  1  0
 20 39  1  0
 21 23  1  0
 23 24  1  0
 23 40  1  0
 23 41  1  0
 24 25  1  0
 24 42  1  0
 24 43  1  0
 25 44  1  0
M  END
>  <s_m_entry_id>  (1) 
522

>  <Name>  (1) 
5n

>  <IC50[nM]>  (1) 
14

>  <s_m_Source_Path>  (1) 
/projects/mai/users/kmzp800_harry/pmx_colab/docking_jobs/tnks2

>  <s_m_Source_File>  (1) 
tnks2_lig.sdf

>  <i_m_Source_File_Index>  (1) 
1

>  <s_m_job_name>  (1) 
glide-dock_SP_tnks_mcs_fallabck

>  <r_i_docking_score>  (1) 
-9.3814702968296

>  <r_i_glide_gscore>  (1) 
-9.3814702968296

>  <r_i_glide_emodel>  (1) 
-37.4365168605711

>  <index_string>  (1) 
25:0:0

$$$$
