0:0:0
     RDKit          3D

 49 52  0  0  1  0  0  0  0  0999 V2000
   34.3480   36.0280   20.3370 C   0  0  0  0  0  0  0  0  0  0  0  0
   34.3390   37.4150   20.4710 C   0  0  0  0  0  0  0  0  0  0  0  0
   34.2730   37.9890   21.7340 C   0  0  0  0  0  0  0  0  0  0  0  0
   34.2480   39.3720   21.8980 C   0  0  0  0  0  0  0  0  0  0  0  0
   34.1750   39.9020   23.1470 N   0  0  0  0  0  0  0  0  0  0  0  0
   34.1240   39.1030   24.2470 C   0  0  0  0  0  0  0  0  0  0  0  0
   34.0430   39.6970   25.5470 N   0  0  0  0  0  0  0  0  0  0  0  0
   34.1500   37.7490   24.1030 N   0  0  0  0  0  0  0  0  0  0  0  0
   34.2220   37.1690   22.8740 C   0  0  0  0  0  0  0  0  0  0  0  0
   34.2560   35.8060   22.7400 N   0  0  0  0  0  0  0  0  0  0  0  0
   34.3300   35.2260   21.4990 C   0  0  0  0  0  0  0  0  0  0  0  0
   34.4050   33.9700   21.3940 O   0  0  0  0  0  0  0  0  0  0  0  0
   33.9730   38.9370   26.7920 C   0  0  0  0  0  0  0  0  0  0  0  0
   33.0620   39.6320   27.8130 C   0  0  0  0  0  0  0  0  0  0  0  0
   33.3250   39.1380   29.2430 C   0  0  0  0  0  0  0  0  0  0  0  0
   34.0480   37.9320   29.2410 O   0  0  0  0  0  0  0  0  0  0  0  0
   35.3470   38.2680   28.8240 C   0  0  0  0  0  0  0  0  0  0  0  0
   35.3770   38.6320   27.3330 C   0  0  0  0  0  0  0  0  0  0  0  0
   34.2100   34.9590   23.9320 C   0  0  0  0  0  0  0  0  0  0  0  0
   35.6040   34.7890   24.5080 C   0  0  0  0  0  0  0  0  0  0  0  0
   34.4190   35.4840   19.0460 O   0  0  0  0  0  0  0  0  0  0  0  0
   36.1980   35.8770   15.8330 C   0  0  0  0  0  0  0  0  0  0  0  0
   35.1810   35.6970   16.7740 C   0  0  0  0  0  0  0  0  0  0  0  0
   35.4740   35.6780   18.1430 C   0  0  0  0  0  0  0  0  0  0  0  0
   36.8140   35.8120   18.5630 C   0  0  0  0  0  0  0  0  0  0  0  0
   37.1500   35.7290   19.8740 F   0  0  0  0  0  0  0  0  0  0  0  0
   37.8280   35.9910   17.6170 C   0  0  0  0  0  0  0  0  0  0  0  0
   37.5200   36.0310   16.2550 C   0  0  0  0  0  0  0  0  0  0  0  0
   38.5060   36.2060   15.3430 F   0  0  0  0  0  0  0  0  0  0  0  0
   34.3841   38.0547   19.5773 H   0  0  0  0  0  0  0  0  0  0  0  0
   34.2872   40.0328   21.0195 H   0  0  0  0  0  0  0  0  0  0  0  0
   34.0335   40.7251   25.6080 H   0  0  0  0  0  0  0  0  0  0  0  0
   33.5086   37.9617   26.5841 H   0  0  0  0  0  0  0  0  0  0  0  0
   33.2437   40.7161   27.7720 H   0  0  0  0  0  0  0  0  0  0  0  0
   32.0188   39.3953   27.5565 H   0  0  0  0  0  0  0  0  0  0  0  0
   33.9023   39.9012   29.7855 H   0  0  0  0  0  0  0  0  0  0  0  0
   32.3564   38.9618   29.7336 H   0  0  0  0  0  0  0  0  0  0  0  0
   35.7002   39.1291   29.4103 H   0  0  0  0  0  0  0  0  0  0  0  0
   35.9990   37.3962   28.9820 H   0  0  0  0  0  0  0  0  0  0  0  0
   35.8003   37.7878   26.7689 H   0  0  0  0  0  0  0  0  0  0  0  0
   35.9929   39.5356   27.2141 H   0  0  0  0  0  0  0  0  0  0  0  0
   33.5600   35.4274   24.6857 H   0  0  0  0  0  0  0  0  0  0  0  0
   33.8129   33.9712   23.6554 H   0  0  0  0  0  0  0  0  0  0  0  0
   35.5501   34.7956   25.6067 H   0  0  0  0  0  0  0  0  0  0  0  0
   36.0274   33.8326   24.1674 H   0  0  0  0  0  0  0  0  0  0  0  0
   36.2448   35.6157   24.1674 H   0  0  0  0  0  0  0  0  0  0  0  0
   35.9572   35.8974   14.7599 H   0  0  0  0  0  0  0  0  0  0  0  0
   34.1419   35.5692   16.4366 H   0  0  0  0  0  0  0  0  0  0  0  0
   38.8718   36.1007   17.9464 H   0  0  0  0  0  0  0  0  0  0  0  0
  1  2  2  0
  1 11  1  0
  1 21  1  0
  2  3  1  0
  3  4  2  0
  3  9  1  0
  4  5  1  0
  5  6  2  0
  6  7  1  0
  6  8  1  0
  7 13  1  0
  8  9  2  0
  9 10  1  0
 10 19  1  0
 10 11  1  0
 11 12  2  0
 13 18  1  0
 13 14  1  0
 14 15  1  0
 15 16  1  0
 16 17  1  0
 17 18  1  0
 19 20  1  0
 21 24  1  0
 22 28  2  0
 22 23  1  0
 23 24  2  0
 24 25  1  0
 25 26  1  0
 25 27  2  0
 27 28  1  0
 28 29  1  0
  2 30  1  0
  4 31  1  0
  7 32  1  0
 13 33  1  0
 14 34  1  0
 14 35  1  0
 15 36  1  0
 15 37  1  0
 17 38  1  0
 17 39  1  0
 18 40  1  0
 18 41  1  0
 19 42  1  0
 19 43  1  0
 20 44  1  0
 20 45  1  0
 20 46  1  0
 22 47  1  0
 23 48  1  0
 27 49  1  0
M  END
>  <s_m_entry_id>  (1) 
49

>  <MODEL>  (1) 
2

>  <REMARK>  (1) 
 VINA RESULT:   -11.915      1.607      2.113
 INTER + INTRA:         -11.188
 INTER:                 -10.636
 INTRA:                  -0.552
 UNBOUND:                 3.514
  Name = /scratch/kmzp800/tmpiyqa8pzq/tmp4zif2org.pdb
  5 active torsions:
  status: ('A' for Active; 'I' for Inactive)
    1  A    between atoms: C3_3  and  O1_4
    2  A    between atoms: O1_4  and  C4_5
    3  A    between atoms: N2_11  and  C9_12
    4  A    between atoms: N4_20  and  C15_21
    5  A    between atoms: C15_21  and  C16_22
                            x       y       z     vdW  Elec       q    Type
                         _______ _______ _______ _____ _____    ______ ____

>  <TORSDO>  (1) 
F 4

>  <grid_id>  (1) 
p38-prepared

>  <grid_path>  (1) 
/projects/mai/users/kmzp800_harry/pmx_colab/docking_jobs/p38/vina_docking/input_files/p38_vina.pdbqt

>  <grid_filename>  (1) 
p38_vina.pdbqt

>  <docking_score>  (1) 
-11.915

>  <compound_name>  (1) 
lig_p38a_2l

>  <index_string>  (1) 
0:0:0

$$$$
