21:0:0
     RDKit          3D

 29 30  0  0  1  0  0  0  0  0999 V2000
   39.3837   17.8863   12.4965 O   0  0  0  0  0  0  0  0  0  0  0  0
   40.5365   17.4043   12.5523 C   0  0  0  0  0  0  0  0  0  0  0  0
   41.3838   17.4863   11.6338 O   0  0  0  0  0  0  0  0  0  0  0  0
   40.9275   16.6729   13.8360 C   0  0  0  0  0  0  0  0  0  0  0  0
   42.1016   15.9037   13.6216 O   0  0  0  0  0  0  0  0  0  0  0  0
   42.3786   15.0252   14.6071 C   0  0  0  0  0  0  0  0  0  0  0  0
   41.8878   13.6965   14.6524 C   0  0  0  0  0  0  0  0  0  0  0  0
   40.7229   13.0863   13.2940 Br  0  0  0  0  0  0  0  0  0  0  0  0
   42.3295   12.9322   15.7038 C   0  0  0  0  0  0  0  0  0  0  0  0
   43.3838   13.8924   16.7104 S   0  0  0  0  0  0  0  0  0  0  0  0
   43.1608   15.3043   15.6940 C   0  0  0  0  0  0  0  0  0  0  0  0
   43.7932   16.5572   16.1195 C   0  0  0  0  0  0  0  0  0  0  0  0
   44.1838   16.6863   17.2986 O   0  0  0  0  0  0  0  0  0  0  0  0
   43.9155   17.4863   15.2940 O   0  0  0  0  0  0  0  0  0  0  0  0
   42.0527   11.5420   16.0716 C   0  0  0  0  0  0  0  0  0  0  0  0
   43.0486   10.7355   16.6692 C   0  0  0  0  0  0  0  0  0  0  0  0
   42.7782    9.3975   17.0184 C   0  0  0  0  0  0  0  0  0  0  0  0
   41.5139    8.8379   16.7538 C   0  0  0  0  0  0  0  0  0  0  0  0
   40.5151    9.6261   16.1524 C   0  0  0  0  0  0  0  0  0  0  0  0
   39.2628    9.0864   15.8622 N   0  0  0  0  0  0  0  0  0  0  0  0
   40.7837   10.9698   15.8331 C   0  0  0  0  0  0  0  0  0  0  0  0
   41.0988   17.4051   14.6265 H   0  0  0  0  0  0  0  0  0  0  0  0
   40.0973   16.0381   14.1494 H   0  0  0  0  0  0  0  0  0  0  0  0
   44.0330   11.1368   16.8623 H   0  0  0  0  0  0  0  0  0  0  0  0
   43.5472    8.7943   17.4776 H   0  0  0  0  0  0  0  0  0  0  0  0
   41.3188    7.8069   17.0110 H   0  0  0  0  0  0  0  0  0  0  0  0
   39.1654    8.0810   15.8587 H   0  0  0  0  0  0  0  0  0  0  0  0
   38.6958    9.5703   15.1769 H   0  0  0  0  0  0  0  0  0  0  0  0
   39.9968   11.5652   15.4001 H   0  0  0  0  0  0  0  0  0  0  0  0
  1  2  2  0
  2  3  1  0
  2  4  1  0
  4  5  1  0
  4 22  1  0
  4 23  1  0
  5  6  1  0
  6 11  2  0
  6  7  1  0
  7  8  1  0
  7  9  2  0
  9 10  1  0
  9 15  1  0
 10 11  1  0
 11 12  1  0
 12 13  2  0
 12 14  1  0
 15 21  1  0
 15 16  2  0
 16 17  1  0
 16 24  1  0
 17 18  2  0
 17 25  1  0
 18 19  1  0
 18 26  1  0
 19 20  1  0
 19 21  2  0
 20 27  1  0
 20 28  1  0
 21 29  1  0
M  CHG  2   3  -1  14  -1
M  END
>  <s_m_entry_id>  (1) 
474

>  <i_f3d_flags>  (1) 
0

>  <r_epik_Ionization_Penalty>  (1) 
  0.0006

>  <r_epik_State_Penalty>  (1) 
  0.0003

>  <i_epik_Tot_Q>  (1) 
-2

>  <s_m_job_name>  (1) 
glide-dock_SP_ptp1b_no_cons

>  <r_i_docking_score>  (1) 
-7.91836053957525

>  <r_i_glide_gscore>  (1) 
-7.91866053957525

>  <r_i_glide_emodel>  (1) 
-96.4879973806414

>  <index_string>  (1) 
21:0:0

$$$$
