12:0:0
     RDKit          3D

 50 54  0  0  1  0  0  0  0  0999 V2000
    6.2640    0.3110   15.7660 C   0  0  0  0  0  0  0  0  0  0  0  0
    5.7540    1.0530   14.7520 N   0  0  0  0  0  0  0  0  0  0  0  0
    4.5010    0.5870   14.6170 C   0  0  0  0  0  0  0  0  0  0  0  0
    3.5450    1.0190   13.7020 C   0  0  0  0  0  0  0  0  0  0  0  0
    3.8540    2.0670   12.7730 N   0  0  0  0  0  0  0  0  0  0  0  0
    2.3200    0.4100   13.7280 N   0  0  0  0  0  0  0  0  0  0  0  0
    2.0240   -0.5930   14.6170 C   0  0  0  0  0  0  0  0  0  0  0  0
    3.0120   -1.0080   15.5310 C   0  0  0  0  0  0  0  0  0  0  0  0
    4.2140   -0.3880   15.4810 N   0  0  0  0  0  0  0  0  0  0  0  0
    5.3080   -0.5910   16.2260 C   0  0  0  0  0  0  0  0  0  0  0  0
    0.6870   -1.2230   14.6100 C   0  0  0  0  0  0  0  0  0  0  0  0
    0.4280   -2.3720   15.4040 C   0  0  0  0  0  0  0  0  0  0  0  0
   -0.8390   -2.9840   15.4080 C   0  0  0  0  0  0  0  0  0  0  0  0
   -1.8210   -2.4130   14.6030 C   0  0  0  0  0  0  0  0  0  0  0  0
   -1.5840   -1.3110   13.8370 C   0  0  0  0  0  0  0  0  0  0  0  0
   -2.7660   -1.0270   13.1790 C   0  0  0  0  0  0  0  0  0  0  0  0
   -3.6730   -1.9610   13.5680 N   0  0  0  0  0  0  0  0  0  0  0  0
   -3.0940   -2.7930   14.4260 N   0  0  0  0  0  0  0  0  0  0  0  0
   -3.7650   -3.9190   15.0500 C   0  0  0  0  0  0  0  0  0  0  0  0
   -0.3430   -0.6820   13.8100 C   0  0  0  0  0  0  0  0  0  0  0  0
    2.9990    2.6320   11.7710 C   0  0  0  0  0  0  0  0  0  0  0  0
    3.5760    3.0950   10.5870 C   0  0  0  0  0  0  0  0  0  0  0  0
    2.7820    3.6530    9.5820 C   0  0  0  0  0  0  0  0  0  0  0  0
    1.3930    3.7560    9.7500 C   0  0  0  0  0  0  0  0  0  0  0  0
    0.8030    3.2940   10.9370 C   0  0  0  0  0  0  0  0  0  0  0  0
    1.6100    2.7330   11.9420 C   0  0  0  0  0  0  0  0  0  0  0  0
    0.5820    4.3120    8.7550 O   0  0  0  0  0  0  0  0  0  0  0  0
    0.1870    5.6780    8.7580 C   0  0  0  0  0  0  0  0  0  0  0  0
   -0.5830    3.4020   11.0930 O   0  0  0  0  0  0  0  0  0  0  0  0
   -1.3090    2.6570   12.0610 C   0  0  0  0  0  0  0  0  0  0  0  0
    7.2839    0.4075   16.1666 H   0  0  0  0  0  0  0  0  0  0  0  0
    4.8039    2.4607   12.8331 H   0  0  0  0  0  0  0  0  0  0  0  0
    2.8137   -1.8078   16.2597 H   0  0  0  0  0  0  0  0  0  0  0  0
    5.4275   -1.3232   17.0382 H   0  0  0  0  0  0  0  0  0  0  0  0
    1.2322   -2.7908   16.0268 H   0  0  0  0  0  0  0  0  0  0  0  0
   -1.0446   -3.8744   16.0202 H   0  0  0  0  0  0  0  0  0  0  0  0
   -2.9396   -0.2009   12.4737 H   0  0  0  0  0  0  0  0  0  0  0  0
   -3.7063   -3.8205   16.1440 H   0  0  0  0  0  0  0  0  0  0  0  0
   -4.8201   -3.9351   14.7394 H   0  0  0  0  0  0  0  0  0  0  0  0
   -3.2770   -4.8546   14.7394 H   0  0  0  0  0  0  0  0  0  0  0  0
   -0.1702    0.2073   13.1860 H   0  0  0  0  0  0  0  0  0  0  0  0
    4.6641    3.0199   10.4443 H   0  0  0  0  0  0  0  0  0  0  0  0
    3.2487    4.0137    8.6535 H   0  0  0  0  0  0  0  0  0  0  0  0
    1.1480    2.3696   12.8718 H   0  0  0  0  0  0  0  0  0  0  0  0
    0.0858    6.0281    9.7959 H   0  0  0  0  0  0  0  0  0  0  0  0
    0.9476    6.2808    8.2402 H   0  0  0  0  0  0  0  0  0  0  0  0
   -0.7780    5.7818    8.2402 H   0  0  0  0  0  0  0  0  0  0  0  0
   -1.0033    2.9707   13.0700 H   0  0  0  0  0  0  0  0  0  0  0  0
   -2.3861    2.8386   11.9312 H   0  0  0  0  0  0  0  0  0  0  0  0
   -1.0996    1.5849   11.9312 H   0  0  0  0  0  0  0  0  0  0  0  0
  1 10  2  0
  1  2  1  0
  2  3  2  0
  3  9  1  0
  3  4  1  0
  4  6  2  0
  4  5  1  0
  5 21  1  0
  6  7  1  0
  7  8  2  0
  7 11  1  0
  8  9  1  0
  9 10  1  0
 11 12  2  0
 11 20  1  0
 12 13  1  0
 13 14  2  0
 14 15  1  0
 14 18  1  0
 15 16  1  0
 15 20  2  0
 16 17  2  0
 17 18  1  0
 18 19  1  0
 21 26  1  0
 21 22  2  0
 22 23  1  0
 23 24  2  0
 24 25  1  0
 24 27  1  0
 25 29  1  0
 25 26  2  0
 27 28  1  0
 29 30  1  0
  1 31  1  0
  5 32  1  0
  8 33  1  0
 10 34  1  0
 12 35  1  0
 13 36  1  0
 16 37  1  0
 19 38  1  0
 19 39  1  0
 19 40  1  0
 20 41  1  0
 22 42  1  0
 23 43  1  0
 26 44  1  0
 28 45  1  0
 28 46  1  0
 28 47  1  0
 30 48  1  0
 30 49  1  0
 30 50  1  0
M  END
>  <s_m_entry_id>  (1) 
13

>  <MODEL>  (1) 
1

>  <REMARK>  (1) 
 VINA RESULT:    -9.040      0.000      0.000
 INTER + INTRA:         -11.678
 INTER:                 -11.154
 INTRA:                  -0.525
 UNBOUND:                -0.525
  Name = /scratch/kmzp800/tmp4jr4ez1e/tmpvwjq543y.pdb
  7 active torsions:
  status: ('A' for Active; 'I' for Inactive)
    1  A    between atoms: N2_5  and  C4_6
    2  A    between atoms: C7_9  and  O1_10
    3  A    between atoms: O1_10  and  C8_11
    4  A    between atoms: C9_12  and  O2_13
    5  A    between atoms: O2_13  and  C10_14
    6  A    between atoms: C12_17  and  C13_18
    7  A    between atoms: N5_25  and  C19_26
                            x       y       z     vdW  Elec       q    Type
                         _______ _______ _______ _____ _____    ______ ____

>  <TORSDO>  (1) 
F 4

>  <grid_id>  (1) 
syk-prepared

>  <grid_path>  (1) 
syk_vina.pdbqt

>  <grid_filename>  (1) 
syk_vina.pdbqt

>  <docking_score>  (1) 
-9.04

>  <compound_name>  (1) 
CHEMBL3265023

>  <index_string>  (1) 
12:0:0

>  <s_m_Source_Path>  (1) 
/projects/mai/users/kmzp800_harry/pmx_colab/docking_jobs/syk/vina_prep/output

>  <s_m_Source_File>  (1) 
ptp1b_docked_conformers.sdf

>  <i_m_Source_File_Index>  (1) 
13

$$$$
