31:0:0
     RDKit          3D

 51 54  0  0  1  0  0  0  0  0999 V2000
   -4.5955   -3.0575   15.6263 C   0  0  0  0  0  0  0  0  0  0  0  0
   -3.9604   -2.1142   14.7752 O   0  0  0  0  0  0  0  0  0  0  0  0
   -2.5910   -1.9727   14.8732 C   0  0  0  0  0  0  0  0  0  0  0  0
   -1.7720   -2.7983   15.6823 C   0  0  0  0  0  0  0  0  0  0  0  0
   -0.3881   -2.5669   15.7696 C   0  0  0  0  0  0  0  0  0  0  0  0
    0.2152   -1.5156   15.0535 C   0  0  0  0  0  0  0  0  0  0  0  0
    1.5923   -1.3245   15.2671 N   0  0  0  0  0  0  0  0  0  0  0  0
    2.5253   -0.4208   14.7306 C   0  0  0  0  0  0  0  0  0  0  0  0
    2.1958    0.3906   13.7586 N   0  0  0  0  0  0  0  0  0  0  0  0
    3.1255    1.2734   13.2441 C   0  0  0  0  0  0  0  0  0  0  0  0
    4.4351    1.2845   13.6693 C   0  0  0  0  0  0  0  0  0  0  0  0
    4.7629    0.4788   14.7155 N   0  0  0  0  0  0  0  0  0  0  0  0
    5.9065    0.3791   15.4842 C   0  0  0  0  0  0  0  0  0  0  0  0
    5.5972   -0.4947   16.4952 C   0  0  0  0  0  0  0  0  0  0  0  0
    4.3579   -1.0599   16.3205 N   0  0  0  0  0  0  0  0  0  0  0  0
    3.8305   -0.4140   15.2862 C   0  0  0  0  0  0  0  0  0  0  0  0
    2.6192    2.3582   12.3817 C   0  0  0  0  0  0  0  0  0  0  0  0
    3.3439    2.8046   11.2560 C   0  0  0  0  0  0  0  0  0  0  0  0
    2.9088    3.9195   10.5161 C   0  0  0  0  0  0  0  0  0  0  0  0
    1.7588    4.6378   10.9065 C   0  0  0  0  0  0  0  0  0  0  0  0
    1.3469    5.8469   10.0794 C   0  0  0  0  0  0  0  0  0  0  0  0
    1.0288    4.2109   12.0491 C   0  0  0  0  0  0  0  0  0  0  0  0
    1.4497    3.0589   12.7466 C   0  0  0  0  0  0  0  0  0  0  0  0
   -0.1734    4.9452   12.5665 C   0  0  0  0  0  0  0  0  0  0  0  0
   -1.2566    4.3809   12.7032 O   0  0  0  0  0  0  0  0  0  0  0  0
    0.0284    6.2134   12.9248 N   0  0  0  0  0  0  0  0  0  0  0  0
   -0.5985   -0.7144   14.2179 C   0  0  0  0  0  0  0  0  0  0  0  0
   -1.9972   -0.9302   14.1269 C   0  0  0  0  0  0  0  0  0  0  0  0
   -2.8399   -0.1484   13.3604 O   0  0  0  0  0  0  0  0  0  0  0  0
   -2.2622    0.8372   12.5132 C   0  0  0  0  0  0  0  0  0  0  0  0
   -5.6738   -3.0084   15.4773 H   0  0  0  0  0  0  0  0  0  0  0  0
   -4.2785   -4.0758   15.3985 H   0  0  0  0  0  0  0  0  0  0  0  0
   -4.3987   -2.8438   16.6781 H   0  0  0  0  0  0  0  0  0  0  0  0
   -2.1811   -3.6071   16.2696 H   0  0  0  0  0  0  0  0  0  0  0  0
    0.2070   -3.1960   16.4176 H   0  0  0  0  0  0  0  0  0  0  0  0
    1.9972   -1.9190   15.9794 H   0  0  0  0  0  0  0  0  0  0  0  0
    5.1810    1.9966   13.3328 H   0  0  0  0  0  0  0  0  0  0  0  0
    6.7682    0.9950   15.2761 H   0  0  0  0  0  0  0  0  0  0  0  0
    6.1162   -0.7709   17.3876 H   0  0  0  0  0  0  0  0  0  0  0  0
    4.2479    2.2932   10.9597 H   0  0  0  0  0  0  0  0  0  0  0  0
    3.4791    4.2347    9.6545 H   0  0  0  0  0  0  0  0  0  0  0  0
    1.8182    5.8291    9.0963 H   0  0  0  0  0  0  0  0  0  0  0  0
    0.2687    5.8727    9.9231 H   0  0  0  0  0  0  0  0  0  0  0  0
    1.6504    6.7672   10.5783 H   0  0  0  0  0  0  0  0  0  0  0  0
    0.9000    2.7458   13.6234 H   0  0  0  0  0  0  0  0  0  0  0  0
   -0.7216    6.7309   13.3532 H   0  0  0  0  0  0  0  0  0  0  0  0
    0.9500    6.6243   12.8578 H   0  0  0  0  0  0  0  0  0  0  0  0
   -0.1659    0.0997   13.6675 H   0  0  0  0  0  0  0  0  0  0  0  0
   -3.0472    1.3177   11.9297 H   0  0  0  0  0  0  0  0  0  0  0  0
   -1.7600    1.6141   13.0915 H   0  0  0  0  0  0  0  0  0  0  0  0
   -1.5559    0.3956   11.8083 H   0  0  0  0  0  0  0  0  0  0  0  0
  1  2  1  0
  1 31  1  0
  1 32  1  0
  1 33  1  0
  2  3  1  0
  3  4  2  0
  3 28  1  0
  4  5  1  0
  4 34  1  0
  5  6  2  0
  5 35  1  0
  6  7  1  0
  6 27  1  0
  7  8  1  0
  7 36  1  0
  8  9  2  0
  8 16  1  0
  9 10  1  0
 10 11  2  0
 10 17  1  0
 11 12  1  0
 11 37  1  0
 12 13  1  0
 12 16  1  0
 13 14  2  0
 13 38  1  0
 14 15  1  0
 14 39  1  0
 15 16  2  0
 17 18  2  0
 17 23  1  0
 18 19  1  0
 18 40  1  0
 19 20  2  0
 19 41  1  0
 20 21  1  0
 20 22  1  0
 21 42  1  0
 21 43  1  0
 21 44  1  0
 22 23  2  0
 22 24  1  0
 23 45  1  0
 24 25  2  0
 24 26  1  0
 26 46  1  0
 26 47  1  0
 27 28  2  0
 27 48  1  0
 28 29  1  0
 29 30  1  0
 30 49  1  0
 30 50  1  0
 30 51  1  0
M  END
>  <s_m_entry_id>  (1) 
1019

>  <IC50[nM]>  (1) 
28.3

>  <s_m_Source_Path>  (1) 
/projects/mai/users/kmzp800_harry/pmx_colab/docking_jobs/syk

>  <s_m_Source_File>  (1) 
tnks2_lig.sdf

>  <i_m_Source_File_Index>  (1) 
32

>  <s_m_job_name>  (1) 
glide-dock_SP_tnks2_core_const

>  <r_i_docking_score>  (1) 
-7.47943854790957

>  <r_i_glide_gscore>  (1) 
-7.47943854790957

>  <r_i_glide_emodel>  (1) 
-56.8258790125026

>  <index_string>  (1) 
31:0:0

$$$$
