3:0:0
     RDKit          3D

 64 68  0  0  1  0  0  0  0  0999 V2000
   34.3096   35.1076   21.2598 C   0  0  0  0  0  0  0  0  0  0  0  0
   34.1462   39.0355   23.9414 C   0  0  0  0  0  0  0  0  0  0  0  0
   34.7503   37.9186   21.5761 C   0  0  0  0  0  0  0  0  0  0  0  0
   35.1406   37.2391   20.3484 C   0  0  0  0  0  0  0  0  0  0  0  0
   34.1605   37.1552   22.6025 C   0  0  0  0  0  0  0  0  0  0  0  0
   34.9520   39.2924   21.8312 C   0  0  0  0  0  0  0  0  0  0  0  0
   34.9665   35.9054   20.2173 C   0  0  0  0  0  0  0  0  0  0  0  0
   34.6481   39.8564   23.0224 N   0  0  0  0  0  0  0  0  0  0  0  0
   34.1519   33.8969   21.1152 O   0  0  0  0  0  0  0  0  0  0  0  0
   33.8737   35.7652   22.3763 N   0  0  0  0  0  0  0  0  0  0  0  0
   33.8886   37.7490   23.7762 N   0  0  0  0  0  0  0  0  0  0  0  0
   33.9036   39.5495   25.1952 N   0  0  0  0  0  0  0  0  0  0  0  0
   35.5862   37.8373   19.5675 H   0  0  0  0  0  0  0  0  0  0  0  0
   35.3994   39.9371   21.0904 H   0  0  0  0  0  0  0  0  0  0  0  0
   34.0554   40.5437   25.3315 H   0  0  0  0  0  0  0  0  0  0  0  0
   33.2585   38.4036   28.7660 C   0  0  0  0  0  0  0  0  0  0  0  0
   33.9168   39.2132   27.6410 C   0  0  0  0  0  0  0  0  0  0  0  0
   33.3213   38.7945   26.2975 C   0  0  0  0  0  0  0  0  0  0  0  0
   31.7932   38.9392   26.3444 C   0  0  0  0  0  0  0  0  0  0  0  0
   31.2281   38.1662   27.5474 C   0  0  0  0  0  0  0  0  0  0  0  0
   31.8481   38.6119   28.7493 O   0  0  0  0  0  0  0  0  0  0  0  0
   33.4809   37.3400   28.6650 H   0  0  0  0  0  0  0  0  0  0  0  0
   33.6466   38.7171   29.7338 H   0  0  0  0  0  0  0  0  0  0  0  0
   34.9954   39.0526   27.6489 H   0  0  0  0  0  0  0  0  0  0  0  0
   33.7481   40.2784   27.8122 H   0  0  0  0  0  0  0  0  0  0  0  0
   33.5550   37.7367   26.1784 H   0  0  0  0  0  0  0  0  0  0  0  0
   31.5182   39.9925   26.4248 H   0  0  0  0  0  0  0  0  0  0  0  0
   31.3451   38.5630   25.4236 H   0  0  0  0  0  0  0  0  0  0  0  0
   31.3801   37.0917   27.4249 H   0  0  0  0  0  0  0  0  0  0  0  0
   30.1534   38.3276   27.6265 H   0  0  0  0  0  0  0  0  0  0  0  0
   35.3090   35.2027   19.0873 O   0  0  0  0  0  0  0  0  0  0  0  0
   37.8143   36.5777   16.0226 C   0  0  0  0  0  0  0  0  0  0  0  0
   38.3604   36.3493   17.3024 C   0  0  0  0  0  0  0  0  0  0  0  0
   37.5167   35.9988   18.3768 C   0  0  0  0  0  0  0  0  0  0  0  0
   36.1522   35.7073   18.1335 C   0  0  0  0  0  0  0  0  0  0  0  0
   35.6698   35.7881   16.8196 C   0  0  0  0  0  0  0  0  0  0  0  0
   36.4658   36.2913   15.7816 C   0  0  0  0  0  0  0  0  0  0  0  0
   38.5526   37.1485   15.0495 F   0  0  0  0  0  0  0  0  0  0  0  0
   39.3975   36.5845   17.4929 H   0  0  0  0  0  0  0  0  0  0  0  0
   38.0292   35.9469   19.6229 F   0  0  0  0  0  0  0  0  0  0  0  0
   34.6365   35.5391   16.6215 H   0  0  0  0  0  0  0  0  0  0  0  0
   36.0395   36.4629   14.8057 H   0  0  0  0  0  0  0  0  0  0  0  0
   30.8089   34.1035   24.0583 C   0  0  0  0  0  0  0  0  0  0  0  0
   31.7111   34.5008   22.8754 C   0  0  0  0  0  0  0  0  0  0  0  0
   33.0414   35.0691   23.4007 C   0  0  0  0  0  0  0  0  0  0  0  0
   33.7585   33.9844   24.2004 C   0  0  0  0  0  0  0  0  0  0  0  0
   32.8645   33.5159   25.3739 C   0  0  0  0  0  0  0  0  0  0  0  0
   31.4926   33.1418   24.9426 N   0  0  0  0  0  0  0  0  0  0  0  0
   30.5420   34.9853   24.6426 H   0  0  0  0  0  0  0  0  0  0  0  0
   29.8688   33.6837   23.6928 H   0  0  0  0  0  0  0  0  0  0  0  0
   31.2016   35.2585   22.2898 H   0  0  0  0  0  0  0  0  0  0  0  0
   31.8644   33.6484   22.2159 H   0  0  0  0  0  0  0  0  0  0  0  0
   32.7087   35.7807   24.1530 H   0  0  0  0  0  0  0  0  0  0  0  0
   34.0010   33.1493   23.5480 H   0  0  0  0  0  0  0  0  0  0  0  0
   34.7031   34.3626   24.5915 H   0  0  0  0  0  0  0  0  0  0  0  0
   32.7808   34.3173   26.1078 H   0  0  0  0  0  0  0  0  0  0  0  0
   33.3381   32.6856   25.8930 H   0  0  0  0  0  0  0  0  0  0  0  0
   30.9779   31.4812   24.9259 S   0  0  0  0  0  0  0  0  0  0  0  0
   31.7485   30.7413   25.9361 O   0  0  0  0  0  0  0  0  0  0  0  0
   31.4835   30.9008   23.2641 C   0  0  0  0  0  0  0  0  0  0  0  0
   29.5091   31.4733   24.9702 O   0  0  0  0  0  0  0  0  0  0  0  0
   31.2463   29.8441   23.1635 H   0  0  0  0  0  0  0  0  0  0  0  0
   30.9486   31.4640   22.4975 H   0  0  0  0  0  0  0  0  0  0  0  0
   32.5520   31.0481   23.1559 H   0  0  0  0  0  0  0  0  0  0  0  0
  1  7  1  0
  1  9  2  0
  1 10  1  0
  2  8  1  0
  2 11  2  0
  2 12  1  0
  3  4  1  0
  3  5  2  0
  3  6  1  0
  4  7  2  0
  4 13  1  0
  5 10  1  0
  5 11  1  0
  6  8  2  0
  6 14  1  0
  7 31  1  0
 10 45  1  0
 12 15  1  0
 12 18  1  0
 16 17  1  0
 16 21  1  0
 16 22  1  0
 16 23  1  0
 17 18  1  0
 17 24  1  0
 17 25  1  0
 18 19  1  0
 18 26  1  0
 19 20  1  0
 19 27  1  0
 19 28  1  0
 20 21  1  0
 20 29  1  0
 20 30  1  0
 31 35  1  0
 32 33  2  0
 32 37  1  0
 32 38  1  0
 33 34  1  0
 33 39  1  0
 34 35  2  0
 34 40  1  0
 35 36  1  0
 36 37  2  0
 36 41  1  0
 37 42  1  0
 43 44  1  0
 43 48  1  0
 43 49  1  0
 43 50  1  0
 44 45  1  0
 44 51  1  0
 44 52  1  0
 45 46  1  0
 45 53  1  0
 46 47  1  0
 46 54  1  0
 46 55  1  0
 47 48  1  0
 47 56  1  0
 47 57  1  0
 48 58  1  0
 58 59  2  0
 58 60  1  0
 58 61  2  0
 60 62  1  0
 60 63  1  0
 60 64  1  0
M  END
>  <s_m_entry_id>  (1) 
821

>  <s_m_Source_Path>  (1) 
/projects/mai/users/kmzp800_harry/pmx_colab/docking_jobs/p38/glide-dock_SP_p38_mcs_docking_2

>  <s_m_Source_File>  (1) 
glide-dock_SP_p38_mcs_docking_2_pv.maegz

>  <i_m_Source_File_Index>  (1) 
5

>  <s_pdb_PDB_TITLE>  (1) 
MX MODEL

>  <r_i_docking_score>  (1) 
-7.66553961933847

>  <r_i_glide_gscore>  (1) 
-7.66553961933847

>  <r_i_glide_emodel>  (1) 
-67.5475676409322

>  <index_string>  (1) 
3:0:0

$$$$
