34:0:0
     RDKit          3D

 51 55  0  0  1  0  0  0  0  0999 V2000
   -4.5417   -3.1733   15.5159 C   0  0  0  0  0  0  0  0  0  0  0  0
   -3.8914   -2.2293   14.6769 O   0  0  0  0  0  0  0  0  0  0  0  0
   -2.5309   -2.0616   14.8173 C   0  0  0  0  0  0  0  0  0  0  0  0
   -1.7416   -2.8270   15.7062 C   0  0  0  0  0  0  0  0  0  0  0  0
   -0.3657   -2.5852   15.8180 C   0  0  0  0  0  0  0  0  0  0  0  0
    0.2523   -1.5710   15.0636 C   0  0  0  0  0  0  0  0  0  0  0  0
    1.6218   -1.3564   15.2872 N   0  0  0  0  0  0  0  0  0  0  0  0
    2.5350   -0.4351   14.7275 C   0  0  0  0  0  0  0  0  0  0  0  0
    2.2030    0.3691   13.7539 N   0  0  0  0  0  0  0  0  0  0  0  0
    3.1284    1.2538   13.2315 C   0  0  0  0  0  0  0  0  0  0  0  0
    4.4287    1.2923   13.6850 C   0  0  0  0  0  0  0  0  0  0  0  0
    4.7650    0.4871   14.7263 N   0  0  0  0  0  0  0  0  0  0  0  0
    5.9156    0.3773   15.4831 C   0  0  0  0  0  0  0  0  0  0  0  0
    5.6212   -0.5009   16.4927 C   0  0  0  0  0  0  0  0  0  0  0  0
    4.3738   -1.0649   16.3223 N   0  0  0  0  0  0  0  0  0  0  0  0
    3.8404   -0.4185   15.2935 C   0  0  0  0  0  0  0  0  0  0  0  0
    2.6490    2.1668   12.1609 C   0  0  0  0  0  0  0  0  0  0  0  0
    3.5521    2.6795   11.1933 C   0  0  0  0  0  0  0  0  0  0  0  0
    3.1267    3.4937   10.1323 C   0  0  0  0  0  0  0  0  0  0  0  0
    1.7708    3.8419   10.0376 C   0  0  0  0  0  0  0  0  0  0  0  0
    1.3663    4.6435    8.9932 O   0  0  0  0  0  0  0  0  0  0  0  0
   -0.0354    4.6408    8.7356 C   0  0  0  0  0  0  0  0  0  0  0  0
   -0.8187    4.8016   10.0468 C   0  0  0  0  0  0  0  0  0  0  0  0
   -0.4779    3.7429   10.9790 N   0  0  0  0  0  0  0  0  0  0  0  0
    0.8652    3.3811   11.0302 C   0  0  0  0  0  0  0  0  0  0  0  0
    1.2927    2.5481   12.0820 C   0  0  0  0  0  0  0  0  0  0  0  0
   -0.5317   -0.8191   14.1623 C   0  0  0  0  0  0  0  0  0  0  0  0
   -1.9183   -1.0561   14.0337 C   0  0  0  0  0  0  0  0  0  0  0  0
   -2.7314   -0.3119   13.2021 O   0  0  0  0  0  0  0  0  0  0  0  0
   -2.1609    0.6822   12.3592 C   0  0  0  0  0  0  0  0  0  0  0  0
   -5.6097   -3.1756   15.2969 H   0  0  0  0  0  0  0  0  0  0  0  0
   -4.4232   -2.9258   16.5735 H   0  0  0  0  0  0  0  0  0  0  0  0
   -4.1714   -4.1822   15.3325 H   0  0  0  0  0  0  0  0  0  0  0  0
   -2.1698   -3.5951   16.3310 H   0  0  0  0  0  0  0  0  0  0  0  0
    0.2153   -3.1832   16.5020 H   0  0  0  0  0  0  0  0  0  0  0  0
    2.0561   -2.0014   15.9407 H   0  0  0  0  0  0  0  0  0  0  0  0
    5.1938    1.9655   13.3166 H   0  0  0  0  0  0  0  0  0  0  0  0
    6.7823    0.9751   15.2413 H   0  0  0  0  0  0  0  0  0  0  0  0
    6.1700   -0.7807   17.3604 H   0  0  0  0  0  0  0  0  0  0  0  0
    4.5943    2.4150   11.2361 H   0  0  0  0  0  0  0  0  0  0  0  0
    3.8419    3.8400    9.4002 H   0  0  0  0  0  0  0  0  0  0  0  0
   -0.2775    5.4548    8.0512 H   0  0  0  0  0  0  0  0  0  0  0  0
   -0.3055    3.7106    8.2325 H   0  0  0  0  0  0  0  0  0  0  0  0
   -0.6010    5.7683   10.5026 H   0  0  0  0  0  0  0  0  0  0  0  0
   -1.8936    4.7707    9.8558 H   0  0  0  0  0  0  0  0  0  0  0  0
   -1.0012    3.6927   11.8356 H   0  0  0  0  0  0  0  0  0  0  0  0
    0.5985    2.1943   12.8370 H   0  0  0  0  0  0  0  0  0  0  0  0
   -0.0779   -0.0405   13.5796 H   0  0  0  0  0  0  0  0  0  0  0  0
   -2.9446    1.0946   11.7207 H   0  0  0  0  0  0  0  0  0  0  0  0
   -1.7529    1.5052   12.9485 H   0  0  0  0  0  0  0  0  0  0  0  0
   -1.3910    0.2651   11.7071 H   0  0  0  0  0  0  0  0  0  0  0  0
  1  2  1  0
  1 31  1  0
  1 32  1  0
  1 33  1  0
  2  3  1  0
  3  4  2  0
  3 28  1  0
  4  5  1  0
  4 34  1  0
  5  6  2  0
  5 35  1  0
  6  7  1  0
  6 27  1  0
  7  8  1  0
  7 36  1  0
  8  9  2  0
  8 16  1  0
  9 10  1  0
 10 11  2  0
 10 17  1  0
 11 12  1  0
 11 37  1  0
 12 13  1  0
 12 16  1  0
 13 14  2  0
 13 38  1  0
 14 15  1  0
 14 39  1  0
 15 16  2  0
 17 18  2  0
 17 26  1  0
 18 19  1  0
 18 40  1  0
 19 20  2  0
 19 41  1  0
 20 21  1  0
 20 25  1  0
 21 22  1  0
 22 23  1  0
 22 42  1  0
 22 43  1  0
 23 24  1  0
 23 44  1  0
 23 45  1  0
 24 25  1  0
 24 46  1  0
 25 26  2  0
 26 47  1  0
 27 28  2  0
 27 48  1  0
 28 29  1  0
 29 30  1  0
 30 49  1  0
 30 50  1  0
 30 51  1  0
M  END
>  <s_m_entry_id>  (1) 
1095

>  <IC50[nM]>  (1) 
4.7

>  <s_m_Source_Path>  (1) 
/projects/mai/users/kmzp800_harry/pmx_colab/docking_jobs/syk

>  <s_m_Source_File>  (1) 
tnks2_lig.sdf

>  <i_m_Source_File_Index>  (1) 
38

>  <s_m_job_name>  (1) 
glide-dock_SP_syk_mcs

>  <r_i_docking_score>  (1) 
-6.95751879655268

>  <r_i_glide_gscore>  (1) 
-6.95751879655268

>  <r_i_glide_emodel>  (1) 
-48.3117421252731

>  <index_string>  (1) 
34:0:0

$$$$
