10:0:0
     RDKit          3D

 52 55  0  0  1  0  0  0  0  0999 V2000
   -4.4615   -3.4956   14.5553 C   0  0  0  0  0  0  0  0  0  0  0  0
   -3.8690   -2.2743   14.1342 O   0  0  0  0  0  0  0  0  0  0  0  0
   -2.5360   -2.0630   14.4255 C   0  0  0  0  0  0  0  0  0  0  0  0
   -1.7427   -2.9672   15.1749 C   0  0  0  0  0  0  0  0  0  0  0  0
   -0.3895   -2.6870   15.4370 C   0  0  0  0  0  0  0  0  0  0  0  0
    0.2028   -1.4998   14.9589 C   0  0  0  0  0  0  0  0  0  0  0  0
    1.5579   -1.2904   15.2765 N   0  0  0  0  0  0  0  0  0  0  0  0
    2.5208   -0.4195   14.7341 C   0  0  0  0  0  0  0  0  0  0  0  0
    2.2048    0.3764   13.7445 N   0  0  0  0  0  0  0  0  0  0  0  0
    3.1310    1.2614   13.2379 C   0  0  0  0  0  0  0  0  0  0  0  0
    4.4348    1.2809   13.6891 C   0  0  0  0  0  0  0  0  0  0  0  0
    4.7616    0.4727   14.7246 N   0  0  0  0  0  0  0  0  0  0  0  0
    5.9185    0.3669   15.4737 C   0  0  0  0  0  0  0  0  0  0  0  0
    5.6108   -0.4977   16.4910 C   0  0  0  0  0  0  0  0  0  0  0  0
    4.3529   -1.0461   16.3365 N   0  0  0  0  0  0  0  0  0  0  0  0
    3.8220   -0.3992   15.3088 C   0  0  0  0  0  0  0  0  0  0  0  0
    2.6985    2.2542   12.2125 C   0  0  0  0  0  0  0  0  0  0  0  0
    3.6320    2.8029   11.3005 C   0  0  0  0  0  0  0  0  0  0  0  0
    3.2430    3.7193   10.3093 C   0  0  0  0  0  0  0  0  0  0  0  0
    1.8952    4.1261   10.1861 C   0  0  0  0  0  0  0  0  0  0  0  0
    1.4756    5.0209    9.2192 O   0  0  0  0  0  0  0  0  0  0  0  0
    2.4375    5.9375    8.7059 C   0  0  0  0  0  0  0  0  0  0  0  0
    0.9398    3.5959   11.0861 C   0  0  0  0  0  0  0  0  0  0  0  0
    1.3547    2.6866   12.0996 C   0  0  0  0  0  0  0  0  0  0  0  0
   -0.5119    3.9620   10.9920 C   0  0  0  0  0  0  0  0  0  0  0  0
   -1.1318    3.8768    9.9352 O   0  0  0  0  0  0  0  0  0  0  0  0
   -1.0795    4.3886   12.1239 N   0  0  0  0  0  0  0  0  0  0  0  0
   -0.5937   -0.5946   14.2209 C   0  0  0  0  0  0  0  0  0  0  0  0
   -1.9523   -0.8737   13.9390 C   0  0  0  0  0  0  0  0  0  0  0  0
   -2.7703   -0.0319   13.2114 O   0  0  0  0  0  0  0  0  0  0  0  0
   -2.1758    1.0635   12.5252 C   0  0  0  0  0  0  0  0  0  0  0  0
   -5.5022   -3.5253   14.2306 H   0  0  0  0  0  0  0  0  0  0  0  0
   -3.9520   -4.3553   14.1151 H   0  0  0  0  0  0  0  0  0  0  0  0
   -4.4560   -3.5857   15.6433 H   0  0  0  0  0  0  0  0  0  0  0  0
   -2.1477   -3.8794   15.5891 H   0  0  0  0  0  0  0  0  0  0  0  0
    0.1842   -3.3886   16.0288 H   0  0  0  0  0  0  0  0  0  0  0  0
    1.9382   -1.9209   15.9727 H   0  0  0  0  0  0  0  0  0  0  0  0
    5.1916    1.9810   13.3595 H   0  0  0  0  0  0  0  0  0  0  0  0
    6.7792    0.9849   15.2620 H   0  0  0  0  0  0  0  0  0  0  0  0
    6.1365   -0.7375   17.3894 H   0  0  0  0  0  0  0  0  0  0  0  0
    4.6713    2.5054   11.3293 H   0  0  0  0  0  0  0  0  0  0  0  0
    4.0057    4.0815    9.6387 H   0  0  0  0  0  0  0  0  0  0  0  0
    1.9385    6.6537    8.0453 H   0  0  0  0  0  0  0  0  0  0  0  0
    2.8994    6.5142    9.5134 H   0  0  0  0  0  0  0  0  0  0  0  0
    3.2267    5.4493    8.1260 H   0  0  0  0  0  0  0  0  0  0  0  0
    0.6172    2.2808   12.7782 H   0  0  0  0  0  0  0  0  0  0  0  0
   -2.0478    4.6674   12.1297 H   0  0  0  0  0  0  0  0  0  0  0  0
   -0.5118    4.4749   12.9530 H   0  0  0  0  0  0  0  0  0  0  0  0
   -0.1739    0.3339   13.8740 H   0  0  0  0  0  0  0  0  0  0  0  0
   -2.9251    1.5589   11.9000 H   0  0  0  0  0  0  0  0  0  0  0  0
   -1.7890    1.7994   13.2286 H   0  0  0  0  0  0  0  0  0  0  0  0
   -1.3752    0.7254   11.8645 H   0  0  0  0  0  0  0  0  0  0  0  0
  1  2  1  0
  1 32  1  0
  1 33  1  0
  1 34  1  0
  2  3  1  0
  3  4  2  0
  3 29  1  0
  4  5  1  0
  4 35  1  0
  5  6  2  0
  5 36  1  0
  6  7  1  0
  6 28  1  0
  7  8  1  0
  7 37  1  0
  8  9  2  0
  8 16  1  0
  9 10  1  0
 10 11  2  0
 10 17  1  0
 11 12  1  0
 11 38  1  0
 12 13  1  0
 12 16  1  0
 13 14  2  0
 13 39  1  0
 14 15  1  0
 14 40  1  0
 15 16  2  0
 17 18  2  0
 17 24  1  0
 18 19  1  0
 18 41  1  0
 19 20  2  0
 19 42  1  0
 20 21  1  0
 20 23  1  0
 21 22  1  0
 22 43  1  0
 22 44  1  0
 22 45  1  0
 23 24  2  0
 23 25  1  0
 24 46  1  0
 25 26  2  0
 25 27  1  0
 27 47  1  0
 27 48  1  0
 28 29  2  0
 28 49  1  0
 29 30  1  0
 30 31  1  0
 31 50  1  0
 31 51  1  0
 31 52  1  0
M  END
>  <s_m_entry_id>  (1) 
998

>  <IC50[nM]>  (1) 
37.4

>  <s_m_Source_Path>  (1) 
/projects/mai/users/kmzp800_harry/pmx_colab/docking_jobs/syk

>  <s_m_Source_File>  (1) 
tnks2_lig.sdf

>  <i_m_Source_File_Index>  (1) 
11

>  <s_m_job_name>  (1) 
glide-dock_SP_tnks2_core_const

>  <r_i_docking_score>  (1) 
-7.32665034521485

>  <r_i_glide_gscore>  (1) 
-7.32665034521485

>  <r_i_glide_emodel>  (1) 
-51.3259814578271

>  <index_string>  (1) 
10:0:0

$$$$
