19:0:0
     RDKit          3D

 50 54  0  0  1  0  0  0  0  0999 V2000
   -4.1018   -1.7046   15.1836 C   0  0  0  0  0  0  0  0  0  0  0  0
   -3.4737   -0.8323   14.2536 O   0  0  0  0  0  0  0  0  0  0  0  0
   -2.0933   -0.8245   14.1991 C   0  0  0  0  0  0  0  0  0  0  0  0
   -1.2709   -1.6373   15.0174 C   0  0  0  0  0  0  0  0  0  0  0  0
    0.1295   -1.5502   14.9359 C   0  0  0  0  0  0  0  0  0  0  0  0
    0.7437   -0.6597   14.0352 C   0  0  0  0  0  0  0  0  0  0  0  0
    2.1480   -0.6278   14.0260 N   0  0  0  0  0  0  0  0  0  0  0  0
    3.0331    0.4400   13.8010 C   0  0  0  0  0  0  0  0  0  0  0  0
    2.6987    1.4408   13.0361 N   0  0  0  0  0  0  0  0  0  0  0  0
    3.5790    2.4879   12.8464 C   0  0  0  0  0  0  0  0  0  0  0  0
    4.8352    2.5000   13.4052 C   0  0  0  0  0  0  0  0  0  0  0  0
    5.1633    1.4789   14.2340 N   0  0  0  0  0  0  0  0  0  0  0  0
    6.2778    1.2528   15.0174 C   0  0  0  0  0  0  0  0  0  0  0  0
    6.0303    0.1159   15.7339 C   0  0  0  0  0  0  0  0  0  0  0  0
    4.7837   -0.3960   15.4177 N   0  0  0  0  0  0  0  0  0  0  0  0
    4.2802    0.4064   14.4843 C   0  0  0  0  0  0  0  0  0  0  0  0
    3.0900    3.6132   12.0133 C   0  0  0  0  0  0  0  0  0  0  0  0
    3.6458    4.9132   12.1105 C   0  0  0  0  0  0  0  0  0  0  0  0
    3.1932    5.9641   11.2876 C   0  0  0  0  0  0  0  0  0  0  0  0
    2.1755    5.7278   10.3471 C   0  0  0  0  0  0  0  0  0  0  0  0
    1.7557    6.7500    9.4726 N   0  0  0  0  0  0  0  0  0  0  0  0
    0.7184    6.5966    8.6398 C   0  0  0  0  0  0  0  0  0  0  0  0
    0.4202    7.4394    7.7966 O   0  0  0  0  0  0  0  0  0  0  0  0
   -0.1214    5.3136    8.7934 C   0  0  0  0  0  0  0  0  0  0  0  0
    0.6225    4.1940    9.3000 O   0  0  0  0  0  0  0  0  0  0  0  0
    1.5922    4.4494   10.2438 C   0  0  0  0  0  0  0  0  0  0  0  0
    2.0473    3.4145   11.0815 C   0  0  0  0  0  0  0  0  0  0  0  0
   -0.0735    0.1206   13.1860 C   0  0  0  0  0  0  0  0  0  0  0  0
   -1.4890    0.0501   13.2668 C   0  0  0  0  0  0  0  0  0  0  0  0
   -2.3368    0.8046   12.4805 O   0  0  0  0  0  0  0  0  0  0  0  0
   -1.7699    1.5680   11.4235 C   0  0  0  0  0  0  0  0  0  0  0  0
   -5.1834   -1.5999   15.1012 H   0  0  0  0  0  0  0  0  0  0  0  0
   -3.8273   -1.4623   16.2110 H   0  0  0  0  0  0  0  0  0  0  0  0
   -3.8574   -2.7480   14.9801 H   0  0  0  0  0  0  0  0  0  0  0  0
   -1.6872   -2.3289   15.7341 H   0  0  0  0  0  0  0  0  0  0  0  0
    0.7316   -2.1708   15.5856 H   0  0  0  0  0  0  0  0  0  0  0  0
    2.5700   -1.3131   14.6385 H   0  0  0  0  0  0  0  0  0  0  0  0
    5.5661    3.2904   13.2788 H   0  0  0  0  0  0  0  0  0  0  0  0
    7.1112    1.9391   15.0114 H   0  0  0  0  0  0  0  0  0  0  0  0
    6.6528   -0.3758   16.4662 H   0  0  0  0  0  0  0  0  0  0  0  0
    4.4242    5.1273   12.8273 H   0  0  0  0  0  0  0  0  0  0  0  0
    3.6306    6.9473   11.3798 H   0  0  0  0  0  0  0  0  0  0  0  0
    2.2705    7.6193    9.4690 H   0  0  0  0  0  0  0  0  0  0  0  0
   -0.5473    5.0411    7.8273 H   0  0  0  0  0  0  0  0  0  0  0  0
   -0.9561    5.5172    9.4645 H   0  0  0  0  0  0  0  0  0  0  0  0
    1.5915    2.4423   11.0174 H   0  0  0  0  0  0  0  0  0  0  0  0
    0.3915    0.7743   12.4685 H   0  0  0  0  0  0  0  0  0  0  0  0
   -2.5681    2.0420   10.8527 H   0  0  0  0  0  0  0  0  0  0  0  0
   -1.1230    2.3601   11.8039 H   0  0  0  0  0  0  0  0  0  0  0  0
   -1.2042    0.9382   10.7348 H   0  0  0  0  0  0  0  0  0  0  0  0
  1  2  1  0
  1 32  1  0
  1 33  1  0
  1 34  1  0
  2  3  1  0
  3  4  2  0
  3 29  1  0
  4  5  1  0
  4 35  1  0
  5  6  2  0
  5 36  1  0
  6  7  1  0
  6 28  1  0
  7  8  1  0
  7 37  1  0
  8  9  2  0
  8 16  1  0
  9 10  1  0
 10 11  2  0
 10 17  1  0
 11 12  1  0
 11 38  1  0
 12 13  1  0
 12 16  1  0
 13 14  2  0
 13 39  1  0
 14 15  1  0
 14 40  1  0
 15 16  2  0
 17 18  2  0
 17 27  1  0
 18 19  1  0
 18 41  1  0
 19 20  2  0
 19 42  1  0
 20 21  1  0
 20 26  1  0
 21 22  1  0
 21 43  1  0
 22 23  2  0
 22 24  1  0
 24 25  1  0
 24 44  1  0
 24 45  1  0
 25 26  1  0
 26 27  2  0
 27 46  1  0
 28 29  2  0
 28 47  1  0
 29 30  1  0
 30 31  1  0
 31 48  1  0
 31 49  1  0
 31 50  1  0
M  END
>  <s_m_entry_id>  (1) 
699

>  <IC50[nM]>  (1) 
33.4

>  <s_m_Source_Path>  (1) 
/projects/mai/users/kmzp800_harry/pmx_colab/docking_jobs/syk

>  <s_m_Source_File>  (1) 
tnks2_lig.sdf

>  <i_m_Source_File_Index>  (1) 
20

>  <s_m_job_name>  (1) 
glide-dock_SP_tnks2_no_const

>  <r_i_docking_score>  (1) 
-6.38950608161763

>  <r_i_glide_gscore>  (1) 
-6.38950608161763

>  <r_i_glide_emodel>  (1) 
-62.315086435672

>  <index_string>  (1) 
19:0:0

$$$$
