25:0:0
     RDKit          3D

 50 54  0  0  1  0  0  0  0  0999 V2000
    5.5520   -0.6350   16.3740 C   0  0  0  0  0  0  0  0  0  0  0  0
    4.2660   -1.0470   16.2310 N   0  0  0  0  0  0  0  0  0  0  0  0
    3.8060   -0.2970   15.2150 C   0  0  0  0  0  0  0  0  0  0  0  0
    2.5250   -0.3310   14.6680 C   0  0  0  0  0  0  0  0  0  0  0  0
    1.5400   -1.2340   15.1880 N   0  0  0  0  0  0  0  0  0  0  0  0
    2.2560    0.5180   13.6310 N   0  0  0  0  0  0  0  0  0  0  0  0
    3.1980    1.3810   13.1310 C   0  0  0  0  0  0  0  0  0  0  0  0
    4.4850    1.3940   13.7050 C   0  0  0  0  0  0  0  0  0  0  0  0
    4.7230    0.5420   14.7290 N   0  0  0  0  0  0  0  0  0  0  0  0
    5.8430    0.3570   15.4400 C   0  0  0  0  0  0  0  0  0  0  0  0
    2.8600    2.2820   12.0090 C   0  0  0  0  0  0  0  0  0  0  0  0
    3.8270    2.5570   11.0090 C   0  0  0  0  0  0  0  0  0  0  0  0
    3.5360    3.4100    9.9290 C   0  0  0  0  0  0  0  0  0  0  0  0
    2.2660    3.9720    9.8850 C   0  0  0  0  0  0  0  0  0  0  0  0
    1.6770    4.8320    8.9770 C   0  0  0  0  0  0  0  0  0  0  0  0
    0.4120    5.0670    9.4130 N   0  0  0  0  0  0  0  0  0  0  0  0
    0.2120    4.3890   10.5360 N   0  0  0  0  0  0  0  0  0  0  0  0
   -1.0330    4.4010   11.2860 C   0  0  0  0  0  0  0  0  0  0  0  0
    1.3280    3.7160   10.8400 C   0  0  0  0  0  0  0  0  0  0  0  0
    1.5800    2.8770   11.9230 C   0  0  0  0  0  0  0  0  0  0  0  0
    0.1850   -1.3990   14.7480 C   0  0  0  0  0  0  0  0  0  0  0  0
   -0.4890   -2.5730   15.0910 C   0  0  0  0  0  0  0  0  0  0  0  0
   -1.8080   -2.7760   14.6850 C   0  0  0  0  0  0  0  0  0  0  0  0
   -2.4760   -1.8030   13.9250 C   0  0  0  0  0  0  0  0  0  0  0  0
   -1.8090   -0.6190   13.5760 C   0  0  0  0  0  0  0  0  0  0  0  0
   -0.4790   -0.4240   13.9900 C   0  0  0  0  0  0  0  0  0  0  0  0
   -3.7990   -1.9900   13.5090 O   0  0  0  0  0  0  0  0  0  0  0  0
   -4.2340   -3.1620   12.8340 C   0  0  0  0  0  0  0  0  0  0  0  0
   -2.4840    0.3440   12.8190 O   0  0  0  0  0  0  0  0  0  0  0  0
   -1.8510    1.1100   11.8050 C   0  0  0  0  0  0  0  0  0  0  0  0
    6.2605   -1.0272   17.1185 H   0  0  0  0  0  0  0  0  0  0  0  0
    1.8408   -1.8344   15.9690 H   0  0  0  0  0  0  0  0  0  0  0  0
    5.2677    2.0721   13.3341 H   0  0  0  0  0  0  0  0  0  0  0  0
    6.8006    0.8829   15.3121 H   0  0  0  0  0  0  0  0  0  0  0  0
    4.8228    2.0949   11.0791 H   0  0  0  0  0  0  0  0  0  0  0  0
    4.2836    3.6235    9.1508 H   0  0  0  0  0  0  0  0  0  0  0  0
    2.1444    5.2476    8.0721 H   0  0  0  0  0  0  0  0  0  0  0  0
   -0.8120    4.3989   12.3636 H   0  0  0  0  0  0  0  0  0  0  0  0
   -1.6060    5.3047   11.0310 H   0  0  0  0  0  0  0  0  0  0  0  0
   -1.6233    3.5085   11.0310 H   0  0  0  0  0  0  0  0  0  0  0  0
    0.8102    2.6840   12.6847 H   0  0  0  0  0  0  0  0  0  0  0  0
    0.0239   -3.3432   15.6856 H   0  0  0  0  0  0  0  0  0  0  0  0
   -2.3282   -3.7047   14.9622 H   0  0  0  0  0  0  0  0  0  0  0  0
    0.0458    0.5032   13.7162 H   0  0  0  0  0  0  0  0  0  0  0  0
   -4.5177   -3.9264   13.5724 H   0  0  0  0  0  0  0  0  0  0  0  0
   -5.1026   -2.9210   12.2035 H   0  0  0  0  0  0  0  0  0  0  0  0
   -3.4185   -3.5460   12.2035 H   0  0  0  0  0  0  0  0  0  0  0  0
   -1.2157    1.8788   12.2690 H   0  0  0  0  0  0  0  0  0  0  0  0
   -1.2311    0.4502   11.1802 H   0  0  0  0  0  0  0  0  0  0  0  0
   -2.6158    1.5945   11.1802 H   0  0  0  0  0  0  0  0  0  0  0  0
  1  2  1  0
  1 10  2  0
  2  3  2  0
  3  4  1  0
  3  9  1  0
  4  5  1  0
  4  6  2  0
  5 21  1  0
  6  7  1  0
  7  8  2  0
  7 11  1  0
  8  9  1  0
  9 10  1  0
 11 12  2  0
 11 20  1  0
 12 13  1  0
 13 14  2  0
 14 19  1  0
 14 15  1  0
 15 16  2  0
 16 17  1  0
 17 19  1  0
 17 18  1  0
 19 20  2  0
 21 22  2  0
 21 26  1  0
 22 23  1  0
 23 24  2  0
 24 25  1  0
 24 27  1  0
 25 26  2  0
 25 29  1  0
 27 28  1  0
 29 30  1  0
  1 31  1  0
  5 32  1  0
  8 33  1  0
 10 34  1  0
 12 35  1  0
 13 36  1  0
 15 37  1  0
 18 38  1  0
 18 39  1  0
 18 40  1  0
 20 41  1  0
 22 42  1  0
 23 43  1  0
 26 44  1  0
 28 45  1  0
 28 46  1  0
 28 47  1  0
 30 48  1  0
 30 49  1  0
 30 50  1  0
M  END
>  <s_m_entry_id>  (1) 
26

>  <MODEL>  (1) 
1

>  <REMARK>  (1) 
 VINA RESULT:    -9.629      0.000      0.000
 INTER + INTRA:         -12.275
 INTER:                 -11.881
 INTRA:                  -0.394
 UNBOUND:                -0.394
  Name = /scratch/kmzp800/tmp258bdcsn/tmpe5glqhpc.pdb
  7 active torsions:
  status: ('A' for Active; 'I' for Inactive)
    1  A    between atoms: N2_5  and  C4_6
    2  A    between atoms: C7_9  and  O1_10
    3  A    between atoms: O1_10  and  C8_11
    4  A    between atoms: C9_12  and  O2_13
    5  A    between atoms: O2_13  and  C10_14
    6  A    between atoms: C12_17  and  C13_18
    7  A    between atoms: N5_24  and  C18_25
                            x       y       z     vdW  Elec       q    Type
                         _______ _______ _______ _____ _____    ______ ____

>  <TORSDO>  (1) 
F 4

>  <grid_id>  (1) 
syk-prepared

>  <grid_path>  (1) 
syk_vina.pdbqt

>  <grid_filename>  (1) 
syk_vina.pdbqt

>  <docking_score>  (1) 
-9.629

>  <compound_name>  (1) 
CHEMBL3265022

>  <index_string>  (1) 
25:0:0

>  <s_m_Source_Path>  (1) 
/projects/mai/users/kmzp800_harry/pmx_colab/docking_jobs/syk/vina_prep/output

>  <s_m_Source_File>  (1) 
ptp1b_docked_conformers.sdf

>  <i_m_Source_File_Index>  (1) 
26

$$$$
