12:0:0
     RDKit          3D

 37 39  0  0  1  0  0  0  0  0999 V2000
  -14.4854  -14.6493  -27.5844 C   0  0  0  0  0  0  0  0  0  0  0  0
  -15.0468  -15.5604  -26.6618 C   0  0  0  0  0  0  0  0  0  0  0  0
  -14.5806  -13.2657  -27.4353 C   0  0  0  0  0  0  0  0  0  0  0  0
  -15.7642  -15.0039  -25.5874 C   0  0  0  0  0  0  0  0  0  0  0  0
  -14.8482  -16.9546  -26.7633 N   0  0  0  0  0  0  0  0  0  0  0  0
  -15.2914  -12.7393  -26.3610 C   0  0  0  0  0  0  0  0  0  0  0  0
  -15.9015  -13.6042  -25.4333 C   0  0  0  0  0  0  0  0  0  0  0  0
  -16.3585  -15.9492  -24.5895 C   0  0  0  0  0  0  0  0  0  0  0  0
  -16.1098  -17.2462  -24.8144 N   0  0  0  0  0  0  0  0  0  0  0  0
  -16.9938  -15.5797  -23.6158 O   0  0  0  0  0  0  0  0  0  0  0  0
  -15.3551  -17.7599  -25.8644 C   0  0  0  0  0  0  0  0  0  0  0  0
  -15.1845  -19.2407  -25.9412 C   0  0  0  0  0  0  0  0  0  0  0  0
  -14.7779  -19.8266  -27.1508 C   0  0  0  0  0  0  0  0  0  0  0  0
  -14.5490  -21.2043  -27.2452 C   0  0  0  0  0  0  0  0  0  0  0  0
  -14.7410  -22.0460  -26.1361 C   0  0  0  0  0  0  0  0  0  0  0  0
  -15.1982  -21.4717  -24.9298 C   0  0  0  0  0  0  0  0  0  0  0  0
  -15.4236  -20.0839  -24.8312 C   0  0  0  0  0  0  0  0  0  0  0  0
  -14.4208  -23.5375  -26.2351 C   0  0  0  0  0  0  0  0  0  0  0  0
  -14.1081  -23.9724  -27.5384 O   0  0  0  0  0  0  0  0  0  0  0  0
  -15.6487  -24.3650  -25.8563 C   0  0  0  0  0  0  0  0  0  0  0  0
  -13.1809  -23.8591  -25.3901 C   0  0  0  0  0  0  0  0  0  0  0  0
  -13.6479  -15.1728  -28.9527 Cl  0  0  0  0  0  0  0  0  0  0  0  0
  -14.1173  -12.6156  -28.1667 H   0  0  0  0  0  0  0  0  0  0  0  0
  -15.3729  -11.6662  -26.3109 H   0  0  0  0  0  0  0  0  0  0  0  0
  -16.4484  -13.1951  -24.5941 H   0  0  0  0  0  0  0  0  0  0  0  0
  -16.5502  -17.9016  -24.1761 H   0  0  0  0  0  0  0  0  0  0  0  0
  -14.5968  -19.2244  -28.0318 H   0  0  0  0  0  0  0  0  0  0  0  0
  -14.1897  -21.5727  -28.1858 H   0  0  0  0  0  0  0  0  0  0  0  0
  -15.3436  -22.0896  -24.0556 H   0  0  0  0  0  0  0  0  0  0  0  0
  -15.7500  -19.6775  -23.8845 H   0  0  0  0  0  0  0  0  0  0  0  0
  -13.9292  -24.8986  -27.5124 H   0  0  0  0  0  0  0  0  0  0  0  0
  -15.9495  -24.1751  -24.8260 H   0  0  0  0  0  0  0  0  0  0  0  0
  -15.4747  -25.4352  -25.9400 H   0  0  0  0  0  0  0  0  0  0  0  0
  -16.5011  -24.1282  -26.4924 H   0  0  0  0  0  0  0  0  0  0  0  0
  -13.3625  -23.7012  -24.3240 H   0  0  0  0  0  0  0  0  0  0  0  0
  -12.8475  -24.8872  -25.5384 H   0  0  0  0  0  0  0  0  0  0  0  0
  -12.3469  -23.2248  -25.6799 H   0  0  0  0  0  0  0  0  0  0  0  0
  1  2  2  0
  1  3  1  0
  1 22  1  0
  2  4  1  0
  2  5  1  0
  3  6  2  0
  3 23  1  0
  4  7  2  0
  4  8  1  0
  5 11  2  0
  6  7  1  0
  6 24  1  0
  7 25  1  0
  8  9  1  0
  8 10  2  0
  9 11  1  0
  9 26  1  0
 11 12  1  0
 12 13  2  0
 12 17  1  0
 13 14  1  0
 13 27  1  0
 14 15  2  0
 14 28  1  0
 15 16  1  0
 15 18  1  0
 16 17  2  0
 16 29  1  0
 17 30  1  0
 18 19  1  0
 18 20  1  0
 18 21  1  0
 19 31  1  0
 20 32  1  0
 20 33  1  0
 20 34  1  0
 21 35  1  0
 21 36  1  0
 21 37  1  0
M  END
>  <s_m_entry_id>  (1) 
454

>  <Name>  (1) 
5g

>  <IC50[nM]>  (1) 
12

>  <s_m_Source_Path>  (1) 
/projects/mai/users/kmzp800_harry/pmx_colab/docking_jobs/tnks2

>  <s_m_Source_File>  (1) 
tnks2_lig.sdf

>  <i_m_Source_File_Index>  (1) 
13

>  <s_m_job_name>  (1) 
glide-dock_SP_tnks2_core_const

>  <r_i_docking_score>  (1) 
-10.1620005707975

>  <r_i_glide_gscore>  (1) 
-10.1620005707975

>  <r_i_glide_emodel>  (1) 
-35.6871975134021

>  <index_string>  (1) 
12:0:0

$$$$
