43:0:0
     RDKit          3D

 65 70  0  0  1  0  0  0  0  0999 V2000
    1.8640    0.9880   13.3120 C   0  0  0  0  0  0  0  0  0  0  0  0
    3.1860    0.5230   13.3460 C   0  0  0  0  0  0  0  0  0  0  0  0
    4.1640    1.1210   12.5480 C   0  0  0  0  0  0  0  0  0  0  0  0
    3.8280    2.1890   11.7110 C   0  0  0  0  0  0  0  0  0  0  0  0
    2.5090    2.6640   11.6610 C   0  0  0  0  0  0  0  0  0  0  0  0
    1.5350    2.0560   12.4660 C   0  0  0  0  0  0  0  0  0  0  0  0
    2.1340    3.7890   10.7810 C   0  0  0  0  0  0  0  0  0  0  0  0
    0.8120    4.0940   10.5850 N   0  0  0  0  0  0  0  0  0  0  0  0
    0.4110    5.1230    9.7830 C   0  0  0  0  0  0  0  0  0  0  0  0
   -0.9750    5.4340    9.5890 N   0  0  0  0  0  0  0  0  0  0  0  0
    1.4020    5.8800    9.1620 C   0  0  0  0  0  0  0  0  0  0  0  0
    1.2190    6.9290    8.3430 N   0  0  0  0  0  0  0  0  0  0  0  0
    2.4810    7.2990    8.0100 C   0  0  0  0  0  0  0  0  0  0  0  0
    3.4050    6.4630    8.6340 C   0  0  0  0  0  0  0  0  0  0  0  0
    2.6910    5.5840    9.3480 N   0  0  0  0  0  0  0  0  0  0  0  0
    3.1150    4.5650   10.1330 C   0  0  0  0  0  0  0  0  0  0  0  0
   -2.1020    4.6730   10.0490 C   0  0  0  0  0  0  0  0  0  0  0  0
   -2.6570    3.6330    9.2930 C   0  0  0  0  0  0  0  0  0  0  0  0
   -3.7700    2.9340    9.7650 C   0  0  0  0  0  0  0  0  0  0  0  0
   -4.3470    3.2680   11.0010 C   0  0  0  0  0  0  0  0  0  0  0  0
   -3.7950    4.3080   11.7630 C   0  0  0  0  0  0  0  0  0  0  0  0
   -2.6770    5.0050   11.2790 C   0  0  0  0  0  0  0  0  0  0  0  0
   -5.4670    2.5850   11.4870 O   0  0  0  0  0  0  0  0  0  0  0  0
   -6.7970    2.9270   11.1190 C   0  0  0  0  0  0  0  0  0  0  0  0
   -4.3740    4.6320   12.9950 O   0  0  0  0  0  0  0  0  0  0  0  0
   -4.9130    5.9160   13.2770 C   0  0  0  0  0  0  0  0  0  0  0  0
    0.0170   -0.6890   13.6270 N   0  0  0  0  0  0  0  0  0  0  0  0
    0.8280    0.3700   14.1580 C   0  0  0  0  0  0  0  0  0  0  0  0
    0.6560    0.7820   15.3370 O   0  0  0  0  0  0  0  0  0  0  0  0
   -3.0100   -2.8520   15.6740 C   0  0  0  0  0  0  0  0  0  0  0  0
   -3.3570   -1.7380   14.8980 C   0  0  0  0  0  0  0  0  0  0  0  0
   -2.3690   -1.0180   14.2190 C   0  0  0  0  0  0  0  0  0  0  0  0
   -1.0230   -1.4030   14.3080 C   0  0  0  0  0  0  0  0  0  0  0  0
   -0.6790   -2.5140   15.0830 C   0  0  0  0  0  0  0  0  0  0  0  0
   -1.6650   -3.2350   15.7620 C   0  0  0  0  0  0  0  0  0  0  0  0
   -5.1890   -5.2400   17.1490 C   0  0  0  0  0  0  0  0  0  0  0  0
   -4.1160   -4.9560   16.3900 N   0  0  0  0  0  0  0  0  0  0  0  0
   -4.0470   -3.6100   16.3910 C   0  0  0  0  0  0  0  0  0  0  0  0
   -5.0230   -3.0290   17.1150 N   0  0  0  0  0  0  0  0  0  0  0  0
   -5.7460   -4.0580   17.5940 C   0  0  0  0  0  0  0  0  0  0  0  0
    3.4544   -0.3166   14.0041 H   0  0  0  0  0  0  0  0  0  0  0  0
    5.1995    0.7512   12.5782 H   0  0  0  0  0  0  0  0  0  0  0  0
    4.6026    2.6598   11.0878 H   0  0  0  0  0  0  0  0  0  0  0  0
    0.4983    2.4223   12.4331 H   0  0  0  0  0  0  0  0  0  0  0  0
   -1.1844    6.2949    9.0638 H   0  0  0  0  0  0  0  0  0  0  0  0
    2.7375    8.1366    7.3446 H   0  0  0  0  0  0  0  0  0  0  0  0
    4.5010    6.5149    8.5556 H   0  0  0  0  0  0  0  0  0  0  0  0
    4.1865    4.3511   10.2600 H   0  0  0  0  0  0  0  0  0  0  0  0
   -2.2140    3.3653    8.3224 H   0  0  0  0  0  0  0  0  0  0  0  0
   -4.1973    2.1170    9.1651 H   0  0  0  0  0  0  0  0  0  0  0  0
   -2.2476    5.8234   11.8756 H   0  0  0  0  0  0  0  0  0  0  0  0
   -7.4000    3.0821   12.0258 H   0  0  0  0  0  0  0  0  0  0  0  0
   -6.7863    3.8516   10.5232 H   0  0  0  0  0  0  0  0  0  0  0  0
   -7.2337    2.1119   10.5232 H   0  0  0  0  0  0  0  0  0  0  0  0
   -4.9724    6.0576   14.3662 H   0  0  0  0  0  0  0  0  0  0  0  0
   -4.2638    6.6899   12.8415 H   0  0  0  0  0  0  0  0  0  0  0  0
   -5.9201    5.9946   12.8415 H   0  0  0  0  0  0  0  0  0  0  0  0
    0.2022   -0.9654   12.6522 H   0  0  0  0  0  0  0  0  0  0  0  0
   -4.4100   -1.4289   14.8227 H   0  0  0  0  0  0  0  0  0  0  0  0
   -2.6489   -0.1447   13.6116 H   0  0  0  0  0  0  0  0  0  0  0  0
    0.3740   -2.8227   15.1590 H   0  0  0  0  0  0  0  0  0  0  0  0
   -1.3836   -4.1081   16.3690 H   0  0  0  0  0  0  0  0  0  0  0  0
   -5.5619   -6.2492   17.3779 H   0  0  0  0  0  0  0  0  0  0  0  0
   -5.1806   -2.0227   17.2678 H   0  0  0  0  0  0  0  0  0  0  0  0
   -6.6355   -3.9713   18.2353 H   0  0  0  0  0  0  0  0  0  0  0  0
  1  2  2  0
  1 28  1  0
  1  6  1  0
  2  3  1  0
  3  4  2  0
  4  5  1  0
  5  6  2  0
  5  7  1  0
  7  8  1  0
  7 16  2  0
  8  9  2  0
  9 10  1  0
  9 11  1  0
 10 17  1  0
 11 15  1  0
 11 12  2  0
 12 13  1  0
 13 14  2  0
 14 15  1  0
 15 16  1  0
 17 22  1  0
 17 18  2  0
 18 19  1  0
 19 20  2  0
 20 23  1  0
 20 21  1  0
 21 25  1  0
 21 22  2  0
 23 24  1  0
 25 26  1  0
 27 28  1  0
 27 33  1  0
 28 29  2  0
 30 35  1  0
 30 38  1  0
 30 31  2  0
 31 32  1  0
 32 33  2  0
 33 34  1  0
 34 35  2  0
 36 40  2  0
 36 37  1  0
 37 38  2  0
 38 39  1  0
 39 40  1  0
  2 41  1  0
  3 42  1  0
  4 43  1  0
  6 44  1  0
 10 45  1  0
 13 46  1  0
 14 47  1  0
 16 48  1  0
 18 49  1  0
 19 50  1  0
 22 51  1  0
 24 52  1  0
 24 53  1  0
 24 54  1  0
 26 55  1  0
 26 56  1  0
 26 57  1  0
 27 58  1  0
 31 59  1  0
 32 60  1  0
 34 61  1  0
 35 62  1  0
 36 63  1  0
 39 64  1  0
 40 65  1  0
M  END
>  <s_m_entry_id>  (1) 
44

>  <MODEL>  (1) 
1

>  <REMARK>  (1) 
 VINA RESULT:    -8.601      0.000      0.000
 INTER + INTRA:         -13.638
 INTER:                 -12.120
 INTRA:                  -1.518
 UNBOUND:                -1.518
  Name = /scratch/kmzp800/tmpqy3ang9a/tmpvegk4x79.pdb
  9 active torsions:
  status: ('A' for Active; 'I' for Inactive)
    1  A    between atoms: C2_3  and  C3_4
    2  A    between atoms: C6_7  and  N2_8
    3  A    between atoms: C7_9  and  C8_11
    4  A    between atoms: C12_15  and  C13_16
    5  A    between atoms: N4_19  and  C15_20
    6  A    between atoms: C18_23  and  O2_24
    7  A    between atoms: O2_24  and  C19_25
    8  A    between atoms: C20_26  and  O3_27
    9  A    between atoms: O3_27  and  C21_28
                            x       y       z     vdW  Elec       q    Type
                         _______ _______ _______ _____ _____    ______ ____

>  <TORSDO>  (1) 
F 7

>  <grid_id>  (1) 
syk-prepared

>  <grid_path>  (1) 
syk_vina.pdbqt

>  <grid_filename>  (1) 
syk_vina.pdbqt

>  <docking_score>  (1) 
-8.601

>  <compound_name>  (1) 
CHEMBL3265002

>  <index_string>  (1) 
43:0:0

>  <s_m_Source_Path>  (1) 
/projects/mai/users/kmzp800_harry/pmx_colab/docking_jobs/syk/vina_prep/output

>  <s_m_Source_File>  (1) 
ptp1b_docked_conformers.sdf

>  <i_m_Source_File_Index>  (1) 
44

$$$$
