23:0:0
     RDKit          3D

 41 43  0  0  1  0  0  0  0  0999 V2000
  -14.5430  -14.7554  -27.5450 C   0  0  0  0  0  0  0  0  0  0  0  0
  -15.1222  -15.6758  -26.6259 C   0  0  0  0  0  0  0  0  0  0  0  0
  -14.8122  -13.3751  -27.3885 C   0  0  0  0  0  0  0  0  0  0  0  0
  -15.9315  -15.1850  -25.5688 C   0  0  0  0  0  0  0  0  0  0  0  0
  -14.8482  -17.0597  -26.7264 N   0  0  0  0  0  0  0  0  0  0  0  0
  -15.6457  -12.9132  -26.3659 C   0  0  0  0  0  0  0  0  0  0  0  0
  -16.2086  -13.8101  -25.4483 C   0  0  0  0  0  0  0  0  0  0  0  0
  -16.4713  -16.1702  -24.5822 C   0  0  0  0  0  0  0  0  0  0  0  0
  -16.0482  -17.4251  -24.7386 N   0  0  0  0  0  0  0  0  0  0  0  0
  -17.2482  -15.8628  -23.6868 O   0  0  0  0  0  0  0  0  0  0  0  0
  -15.2506  -17.8785  -25.7896 C   0  0  0  0  0  0  0  0  0  0  0  0
  -14.9397  -19.3318  -25.8184 C   0  0  0  0  0  0  0  0  0  0  0  0
  -14.8482  -20.0132  -27.0424 C   0  0  0  0  0  0  0  0  0  0  0  0
  -14.5227  -21.3759  -27.0558 C   0  0  0  0  0  0  0  0  0  0  0  0
  -14.2377  -22.0793  -25.8732 C   0  0  0  0  0  0  0  0  0  0  0  0
  -14.3878  -21.4094  -24.6390 C   0  0  0  0  0  0  0  0  0  0  0  0
  -14.7457  -20.0471  -24.6150 C   0  0  0  0  0  0  0  0  0  0  0  0
  -13.8007  -23.5393  -25.9823 C   0  0  0  0  0  0  0  0  0  0  0  0
  -13.0200  -23.7697  -27.1386 O   0  0  0  0  0  0  0  0  0  0  0  0
  -15.0556  -24.4113  -26.1330 C   0  0  0  0  0  0  0  0  0  0  0  0
  -12.8846  -23.9727  -24.8235 C   0  0  0  0  0  0  0  0  0  0  0  0
  -13.7228  -15.2217  -28.5550 O   0  0  0  0  0  0  0  0  0  0  0  0
  -13.2916  -14.2924  -29.5507 C   0  0  0  0  0  0  0  0  0  0  0  0
  -14.4055  -12.6274  -28.0524 H   0  0  0  0  0  0  0  0  0  0  0  0
  -15.8575  -11.8587  -26.3386 H   0  0  0  0  0  0  0  0  0  0  0  0
  -16.8482  -13.4393  -24.6610 H   0  0  0  0  0  0  0  0  0  0  0  0
  -16.4256  -18.1069  -24.0929 H   0  0  0  0  0  0  0  0  0  0  0  0
  -14.9706  -19.4929  -27.9786 H   0  0  0  0  0  0  0  0  0  0  0  0
  -14.4482  -21.8876  -27.9886 H   0  0  0  0  0  0  0  0  0  0  0  0
  -14.2151  -21.9169  -23.7022 H   0  0  0  0  0  0  0  0  0  0  0  0
  -14.8482  -19.5559  -23.6612 H   0  0  0  0  0  0  0  0  0  0  0  0
  -12.7222  -24.6664  -27.1229 H   0  0  0  0  0  0  0  0  0  0  0  0
  -15.6690  -24.3727  -25.2321 H   0  0  0  0  0  0  0  0  0  0  0  0
  -14.8102  -25.4533  -26.3386 H   0  0  0  0  0  0  0  0  0  0  0  0
  -15.6757  -24.0698  -26.9628 H   0  0  0  0  0  0  0  0  0  0  0  0
  -13.4222  -23.9849  -23.8789 H   0  0  0  0  0  0  0  0  0  0  0  0
  -12.4482  -24.9621  -24.9722 H   0  0  0  0  0  0  0  0  0  0  0  0
  -12.0482  -23.2829  -24.7226 H   0  0  0  0  0  0  0  0  0  0  0  0
  -12.6598  -14.7727  -30.2932 H   0  0  0  0  0  0  0  0  0  0  0  0
  -14.1440  -13.8663  -30.0808 H   0  0  0  0  0  0  0  0  0  0  0  0
  -12.6937  -13.4804  -29.1386 H   0  0  0  0  0  0  0  0  0  0  0  0
  1  2  2  0
  1  3  1  0
  1 22  1  0
  2  4  1  0
  2  5  1  0
  3  6  2  0
  3 24  1  0
  4  7  2  0
  4  8  1  0
  5 11  2  0
  6  7  1  0
  6 25  1  0
  7 26  1  0
  8  9  1  0
  8 10  2  0
  9 11  1  0
  9 27  1  0
 11 12  1  0
 12 13  2  0
 12 17  1  0
 13 14  1  0
 13 28  1  0
 14 15  2  0
 14 29  1  0
 15 16  1  0
 15 18  1  0
 16 17  2  0
 16 30  1  0
 17 31  1  0
 18 19  1  0
 18 20  1  0
 18 21  1  0
 19 32  1  0
 20 33  1  0
 20 34  1  0
 20 35  1  0
 21 36  1  0
 21 37  1  0
 21 38  1  0
 22 23  1  0
 23 39  1  0
 23 40  1  0
 23 41  1  0
M  END
>  <s_m_entry_id>  (1) 
438

>  <Name>  (1) 
5h

>  <IC50[nM]>  (1) 
43

>  <s_m_Source_Path>  (1) 
/projects/mai/users/kmzp800_harry/pmx_colab/docking_jobs/tnks2

>  <s_m_Source_File>  (1) 
tnks2_lig.sdf

>  <i_m_Source_File_Index>  (1) 
24

>  <s_m_job_name>  (1) 
glide-dock_SP_tnks2_no_cons

>  <r_i_docking_score>  (1) 
-10.7126110404166

>  <r_i_glide_gscore>  (1) 
-10.7126110404166

>  <r_i_glide_emodel>  (1) 
-69.3447236941082

>  <index_string>  (1) 
23:0:0

$$$$
