1:0:0
     RDKit          3D

 41 43  0  0  1  0  0  0  0  0999 V2000
   42.3850    9.1790   17.0600 C   0  0  0  0  0  0  0  0  0  0  0  0
   41.3070    8.6510   16.3450 C   0  0  0  0  0  0  0  0  0  0  0  0
   40.5710    9.4650   15.4810 C   0  0  0  0  0  0  0  0  0  0  0  0
   40.9120   10.8120   15.3280 C   0  0  0  0  0  0  0  0  0  0  0  0
   41.9870   11.3620   16.0390 C   0  0  0  0  0  0  0  0  0  0  0  0
   42.7160   10.5340   16.9040 C   0  0  0  0  0  0  0  0  0  0  0  0
   42.3830   12.7820   15.8830 C   0  0  0  0  0  0  0  0  0  0  0  0
   43.3570   13.6080   16.9830 S   0  0  0  0  0  0  0  0  0  0  0  0
   43.3870   15.0840   16.1830 C   0  0  0  0  0  0  0  0  0  0  0  0
   42.6010   14.9610   15.0300 C   0  0  0  0  0  0  0  0  0  0  0  0
   42.0600   13.6760   14.8500 C   0  0  0  0  0  0  0  0  0  0  0  0
   40.9290   13.2890   13.3490 Br  0  0  0  0  0  0  0  0  0  0  0  0
   44.2240   16.2190   16.6070 C   0  0  0  0  0  0  0  0  0  0  0  0
   44.3410   16.4870   17.8310 O   0  0  0  0  0  0  0  0  0  0  0  0
   44.9420   16.9620   15.6790 O   0  0  0  0  0  0  0  0  0  0  0  0
   42.3170   15.9930   14.1260 O   0  0  0  0  0  0  0  0  0  0  0  0
   41.2090   16.8740   14.2660 C   0  0  0  0  0  0  0  0  0  0  0  0
   40.6780   17.2540   12.9270 C   0  0  0  0  0  0  0  0  0  0  0  0
   41.4670   17.4240   11.9620 O   0  0  0  0  0  0  0  0  0  0  0  0
   39.3090   17.3780   12.7330 O   0  0  0  0  0  0  0  0  0  0  0  0
   43.1090    8.3400   17.9160 O   0  0  0  0  0  0  0  0  0  0  0  0
   43.1170    8.4840   19.3350 C   0  0  0  0  0  0  0  0  0  0  0  0
   46.9730    9.7560   20.7190 C   0  0  0  0  0  0  0  0  0  0  0  0
   46.8530    8.5960   19.9490 C   0  0  0  0  0  0  0  0  0  0  0  0
   45.5960    8.1850   19.4950 C   0  0  0  0  0  0  0  0  0  0  0  0
   44.4570    8.9330   19.8130 C   0  0  0  0  0  0  0  0  0  0  0  0
   44.5790   10.0940   20.5840 C   0  0  0  0  0  0  0  0  0  0  0  0
   45.8360   10.5050   21.0370 C   0  0  0  0  0  0  0  0  0  0  0  0
   41.0372    7.5911   16.4629 H   0  0  0  0  0  0  0  0  0  0  0  0
   39.7224    9.0458   14.9205 H   0  0  0  0  0  0  0  0  0  0  0  0
   40.3307   11.4465   14.6427 H   0  0  0  0  0  0  0  0  0  0  0  0
   43.5612   10.9531   17.4697 H   0  0  0  0  0  0  0  0  0  0  0  0
   40.4170   16.3724   14.8414 H   0  0  0  0  0  0  0  0  0  0  0  0
   41.5385   17.7826   14.7912 H   0  0  0  0  0  0  0  0  0  0  0  0
   42.3617    9.2287   19.6264 H   0  0  0  0  0  0  0  0  0  0  0  0
   42.8881    7.5091   19.7902 H   0  0  0  0  0  0  0  0  0  0  0  0
   47.9621   10.0799   21.0750 H   0  0  0  0  0  0  0  0  0  0  0  0
   47.7475    8.0062   19.7000 H   0  0  0  0  0  0  0  0  0  0  0  0
   45.5024    7.2729   18.8873 H   0  0  0  0  0  0  0  0  0  0  0  0
   43.6849   10.6840   20.8340 H   0  0  0  0  0  0  0  0  0  0  0  0
   45.9306   11.4177   21.6437 H   0  0  0  0  0  0  0  0  0  0  0  0
  1 21  1  0
  1  2  2  0
  1  6  1  0
  2  3  1  0
  2 29  1  0
  3  4  2  0
  3 30  1  0
  4  5  1  0
  4 31  1  0
  5  6  2  0
  5  7  1  0
  6 32  1  0
  7  8  1  0
  7 11  2  0
  8  9  1  0
  9 13  1  0
  9 10  2  0
 10 11  1  0
 10 16  1  0
 11 12  1  0
 13 14  1  0
 13 15  2  0
 16 17  1  0
 17 18  1  0
 17 33  1  0
 17 34  1  0
 18 19  2  0
 18 20  1  0
 21 22  1  0
 22 26  1  0
 22 35  1  0
 22 36  1  0
 23 28  2  0
 23 24  1  0
 23 37  1  0
 24 25  2  0
 24 38  1  0
 25 26  1  0
 25 39  1  0
 26 27  2  0
 27 28  1  0
 27 40  1  0
 28 41  1  0
M  CHG  2  14  -1  20  -1
M  END
>  <s_m_entry_id>  (1) 
1218

>  <MODEL>  (1) 
4

>  <REMARK>  (1) 
 VINA RESULT:    -7.207      3.154      8.939
 INTER + INTRA:         -11.677
 INTER:                 -11.026
 INTRA:                  -0.652
 UNBOUND:                -1.100
  Name = /scratch/kmzp800/tmpq_j99nk2/tmp042hmrk0.pdb
  8 active torsions:
  status: ('A' for Active; 'I' for Inactive)
    1  A    between atoms: C4_4  and  C5_5
    2  A    between atoms: C5_5  and  O1_6
    3  A    between atoms: O1_6  and  C6_7
    4  A    between atoms: C10_11  and  C11_12
    5  A    between atoms: C12_14  and  C13_15
    6  A    between atoms: C14_18  and  O4_19
    7  A    between atoms: O4_19  and  C15_20
    8  A    between atoms: C15_20  and  C16_21
                            x       y       z     vdW  Elec       q    Type
                         _______ _______ _______ _____ _____    ______ ____

>  <TORSDO>  (1) 
F 8

>  <grid_id>  (1) 
ptp1b-prepared

>  <grid_path>  (1) 
ptp1b_vina.pdbqt

>  <grid_filename>  (1) 
ptp1b_vina.pdbqt

>  <docking_score>  (1) 
-7.207

>  <compound_name>  (1) 
lig_23473

>  <index_string>  (1) 
1:0:0

>  <s_m_Source_Path>  (1) 
/projects/mai/users/kmzp800_harry/pmx_colab/docking_jobs/ptp1b

>  <s_m_Source_File>  (1) 
ptp1b_confs_vina_mcs.sdf

>  <i_m_Source_File_Index>  (1) 
2

$$$$
