2:0:0
     RDKit          3D

 46 49  0  0  1  0  0  0  0  0999 V2000
   37.7521   35.5756   15.1813 F   0  0  0  0  0  0  0  0  0  0  0  0
   36.8446   35.5602   16.1811 C   0  0  0  0  0  0  0  0  0  0  0  0
   37.2293   35.9493   17.4745 C   0  0  0  0  0  0  0  0  0  0  0  0
   36.2949   35.9493   18.5289 C   0  0  0  0  0  0  0  0  0  0  0  0
   36.7265   36.3076   19.7620 F   0  0  0  0  0  0  0  0  0  0  0  0
   34.9510   35.5494   18.2847 C   0  0  0  0  0  0  0  0  0  0  0  0
   34.5840   35.1493   16.9832 C   0  0  0  0  0  0  0  0  0  0  0  0
   35.5223   35.1498   15.9342 C   0  0  0  0  0  0  0  0  0  0  0  0
   33.9524   35.4905   19.2304 O   0  0  0  0  0  0  0  0  0  0  0  0
   34.1196   36.0643   20.4588 C   0  0  0  0  0  0  0  0  0  0  0  0
   34.0225   37.3994   20.6058 C   0  0  0  0  0  0  0  0  0  0  0  0
   34.3744   35.1714   21.5923 C   0  0  0  0  0  0  0  0  0  0  0  0
   34.5416   33.9620   21.4213 O   0  0  0  0  0  0  0  0  0  0  0  0
   34.4480   35.7546   22.8254 N   0  0  0  0  0  0  0  0  0  0  0  0
   34.6960   34.9189   24.0120 C   0  0  0  0  0  0  0  0  0  0  0  0
   34.3259   37.1695   23.0370 C   0  0  0  0  0  0  0  0  0  0  0  0
   34.1455   38.0112   21.9203 C   0  0  0  0  0  0  0  0  0  0  0  0
   34.3665   37.7123   24.2723 N   0  0  0  0  0  0  0  0  0  0  0  0
   34.2294   39.0319   24.3972 C   0  0  0  0  0  0  0  0  0  0  0  0
   34.1305   39.9107   23.4007 N   0  0  0  0  0  0  0  0  0  0  0  0
   34.0797   39.3990   22.1528 C   0  0  0  0  0  0  0  0  0  0  0  0
   34.1522   39.5492   25.6755 N   0  0  0  0  0  0  0  0  0  0  0  0
   34.2658   38.7507   26.8959 C   0  0  0  0  0  0  0  0  0  0  0  0
   34.6148   39.6204   28.1141 C   0  0  0  0  0  0  0  0  0  0  0  0
   33.3945   40.4110   28.6159 C   0  0  0  0  0  0  0  0  0  0  0  0
   32.3142   39.5277   28.8923 O   0  0  0  0  0  0  0  0  0  0  0  0
   31.8592   38.8390   27.7338 C   0  0  0  0  0  0  0  0  0  0  0  0
   32.9871   37.9420   27.1979 C   0  0  0  0  0  0  0  0  0  0  0  0
   38.2486   36.2560   17.6619 H   0  0  0  0  0  0  0  0  0  0  0  0
   33.5659   34.8372   16.7918 H   0  0  0  0  0  0  0  0  0  0  0  0
   35.2239   34.8409   14.9435 H   0  0  0  0  0  0  0  0  0  0  0  0
   33.8224   38.0382   19.7585 H   0  0  0  0  0  0  0  0  0  0  0  0
   33.9409   35.1135   24.7745 H   0  0  0  0  0  0  0  0  0  0  0  0
   34.6782   33.8439   23.8288 H   0  0  0  0  0  0  0  0  0  0  0  0
   35.6700   35.1598   24.4392 H   0  0  0  0  0  0  0  0  0  0  0  0
   33.9597   40.1013   21.3406 H   0  0  0  0  0  0  0  0  0  0  0  0
   34.0416   40.5563   25.7591 H   0  0  0  0  0  0  0  0  0  0  0  0
   35.0898   38.0522   26.7423 H   0  0  0  0  0  0  0  0  0  0  0  0
   34.9643   38.9748   28.9206 H   0  0  0  0  0  0  0  0  0  0  0  0
   35.4401   40.2951   27.8830 H   0  0  0  0  0  0  0  0  0  0  0  0
   33.6473   40.9565   29.5252 H   0  0  0  0  0  0  0  0  0  0  0  0
   33.0838   41.1493   27.8793 H   0  0  0  0  0  0  0  0  0  0  0  0
   30.9930   38.2337   28.0020 H   0  0  0  0  0  0  0  0  0  0  0  0
   31.5257   39.5500   26.9759 H   0  0  0  0  0  0  0  0  0  0  0  0
   32.6462   37.3931   26.3201 H   0  0  0  0  0  0  0  0  0  0  0  0
   33.2173   37.1878   27.9512 H   0  0  0  0  0  0  0  0  0  0  0  0
  1  2  1  0
  2  8  2  0
  2  3  1  0
  3  4  2  0
  3 29  1  0
  4  5  1  0
  4  6  1  0
  6  7  2  0
  6  9  1  0
  7  8  1  0
  7 30  1  0
  8 31  1  0
  9 10  1  0
 10 11  2  0
 10 12  1  0
 11 17  1  0
 11 32  1  0
 12 13  2  0
 12 14  1  0
 14 15  1  0
 14 16  1  0
 15 33  1  0
 15 34  1  0
 15 35  1  0
 16 17  2  0
 16 18  1  0
 17 21  1  0
 18 19  2  0
 19 20  1  0
 19 22  1  0
 20 21  2  0
 21 36  1  0
 22 23  1  0
 22 37  1  0
 23 28  1  0
 23 24  1  0
 23 38  1  0
 24 25  1  0
 24 39  1  0
 24 40  1  0
 25 26  1  0
 25 41  1  0
 25 42  1  0
 26 27  1  0
 27 28  1  0
 27 43  1  0
 27 44  1  0
 28 45  1  0
 28 46  1  0
M  END
>  <s_m_entry_id>  (1) 
719

>  <i_f3d_flags>  (1) 
0

>  <r_lp_tautomer_probability>  (1) 
1

>  <r_epik_Ionization_Penalty>  (1) 
  0.0000

>  <r_epik_State_Penalty>  (1) 
  0.0000

>  <i_epik_Tot_Q>  (1) 
0

>  <s_m_job_name>  (1) 
glide-dock_SP_p38_all_ligs_no_cons_10_poses

>  <r_i_docking_score>  (1) 
-7.35925102538748

>  <r_i_glide_gscore>  (1) 
-7.35925102538748

>  <r_i_glide_emodel>  (1) 
-57.5714534965938

>  <index_string>  (1) 
2:0:0

$$$$
