21:0:0
     RDKit          3D

 46 50  0  0  1  0  0  0  0  0999 V2000
    5.5250   -0.5840   16.2730 C   0  0  0  0  0  0  0  0  0  0  0  0
    4.2430   -1.0090   16.1480 N   0  0  0  0  0  0  0  0  0  0  0  0
    3.7630   -0.2710   15.1330 C   0  0  0  0  0  0  0  0  0  0  0  0
    2.4770   -0.3190   14.6010 C   0  0  0  0  0  0  0  0  0  0  0  0
    1.5060   -1.2280   15.1380 N   0  0  0  0  0  0  0  0  0  0  0  0
    2.1870    0.5210   13.5630 N   0  0  0  0  0  0  0  0  0  0  0  0
    3.1130    1.3910   13.0470 C   0  0  0  0  0  0  0  0  0  0  0  0
    4.4070    1.4190   13.6050 C   0  0  0  0  0  0  0  0  0  0  0  0
    4.6660    0.5760   14.6320 N   0  0  0  0  0  0  0  0  0  0  0  0
    5.7960    0.4050   15.3310 C   0  0  0  0  0  0  0  0  0  0  0  0
    2.7540    2.2810   11.9240 C   0  0  0  0  0  0  0  0  0  0  0  0
    3.7470    2.6750   10.9890 C   0  0  0  0  0  0  0  0  0  0  0  0
    3.4370    3.5230    9.9080 C   0  0  0  0  0  0  0  0  0  0  0  0
    2.1180    3.9500    9.8040 C   0  0  0  0  0  0  0  0  0  0  0  0
    1.5640    4.7500    8.8840 N   0  0  0  0  0  0  0  0  0  0  0  0
    0.2810    4.8490    9.2300 N   0  0  0  0  0  0  0  0  0  0  0  0
    0.0030    4.1480   10.3280 N   0  0  0  0  0  0  0  0  0  0  0  0
    1.1620    3.5810   10.6900 C   0  0  0  0  0  0  0  0  0  0  0  0
    1.4260    2.7460   11.7690 C   0  0  0  0  0  0  0  0  0  0  0  0
    0.1470   -1.4090   14.7160 C   0  0  0  0  0  0  0  0  0  0  0  0
   -0.5050   -2.5950   15.0590 C   0  0  0  0  0  0  0  0  0  0  0  0
   -1.8270   -2.8150   14.6690 C   0  0  0  0  0  0  0  0  0  0  0  0
   -2.5200   -1.8450   13.9260 C   0  0  0  0  0  0  0  0  0  0  0  0
   -1.8730   -0.6500   13.5760 C   0  0  0  0  0  0  0  0  0  0  0  0
   -0.5420   -0.4390   13.9750 C   0  0  0  0  0  0  0  0  0  0  0  0
   -3.8450   -2.0480   13.5270 O   0  0  0  0  0  0  0  0  0  0  0  0
   -4.2600   -3.1860   12.7850 C   0  0  0  0  0  0  0  0  0  0  0  0
   -2.5720    0.3100   12.8360 O   0  0  0  0  0  0  0  0  0  0  0  0
   -1.9330    1.3980   12.1860 C   0  0  0  0  0  0  0  0  0  0  0  0
    6.2459   -0.9652   17.0113 H   0  0  0  0  0  0  0  0  0  0  0  0
    1.8219   -1.8208   15.9189 H   0  0  0  0  0  0  0  0  0  0  0  0
    5.1789    2.1015   13.2197 H   0  0  0  0  0  0  0  0  0  0  0  0
    6.7473    0.9389   15.1892 H   0  0  0  0  0  0  0  0  0  0  0  0
    4.7779    2.3112   11.1111 H   0  0  0  0  0  0  0  0  0  0  0  0
    4.2020    3.8327    9.1807 H   0  0  0  0  0  0  0  0  0  0  0  0
   -0.9089    4.0604   10.7987 H   0  0  0  0  0  0  0  0  0  0  0  0
    0.6336    2.4575   12.4754 H   0  0  0  0  0  0  0  0  0  0  0  0
    0.0272   -3.3618   15.6410 H   0  0  0  0  0  0  0  0  0  0  0  0
   -2.3293   -3.7538   14.9452 H   0  0  0  0  0  0  0  0  0  0  0  0
   -0.0350    0.4984   13.7026 H   0  0  0  0  0  0  0  0  0  0  0  0
   -4.5527   -3.9887   13.4778 H   0  0  0  0  0  0  0  0  0  0  0  0
   -5.1181   -2.9176   12.1513 H   0  0  0  0  0  0  0  0  0  0  0  0
   -3.4305   -3.5330   12.1513 H   0  0  0  0  0  0  0  0  0  0  0  0
   -1.5274    2.0886   12.9400 H   0  0  0  0  0  0  0  0  0  0  0  0
   -1.1137    1.0195   11.5571 H   0  0  0  0  0  0  0  0  0  0  0  0
   -2.6626    1.9292   11.5571 H   0  0  0  0  0  0  0  0  0  0  0  0
  1  2  1  0
  1 10  2  0
  2  3  2  0
  3  4  1  0
  3  9  1  0
  4  5  1  0
  4  6  2  0
  5 20  1  0
  6  7  1  0
  7  8  2  0
  7 11  1  0
  8  9  1  0
  9 10  1  0
 11 12  2  0
 11 19  1  0
 12 13  1  0
 13 14  2  0
 14 18  1  0
 14 15  1  0
 15 16  2  0
 16 17  1  0
 17 18  1  0
 18 19  2  0
 20 21  2  0
 20 25  1  0
 21 22  1  0
 22 23  2  0
 23 24  1  0
 23 26  1  0
 24 25  2  0
 24 28  1  0
 26 27  1  0
 28 29  1  0
  1 30  1  0
  5 31  1  0
  8 32  1  0
 10 33  1  0
 12 34  1  0
 13 35  1  0
 17 36  1  0
 19 37  1  0
 21 38  1  0
 22 39  1  0
 25 40  1  0
 27 41  1  0
 27 42  1  0
 27 43  1  0
 29 44  1  0
 29 45  1  0
 29 46  1  0
M  END
>  <s_m_entry_id>  (1) 
22

>  <MODEL>  (1) 
1

>  <REMARK>  (1) 
 VINA RESULT:    -9.405      0.000      0.000
 INTER + INTRA:         -12.054
 INTER:                 -11.605
 INTRA:                  -0.450
 UNBOUND:                -0.450
  Name = /scratch/kmzp800/tmpsfgh7zsp/tmpgnu1hgn2.pdb
  6 active torsions:
  status: ('A' for Active; 'I' for Inactive)
    1  A    between atoms: N2_5  and  C4_6
    2  A    between atoms: C7_9  and  O1_10
    3  A    between atoms: O1_10  and  C8_11
    4  A    between atoms: C9_12  and  O2_13
    5  A    between atoms: O2_13  and  C10_14
    6  A    between atoms: C12_17  and  C13_18
                            x       y       z     vdW  Elec       q    Type
                         _______ _______ _______ _____ _____    ______ ____

>  <TORSDO>  (1) 
F 4

>  <grid_id>  (1) 
syk-prepared

>  <grid_path>  (1) 
syk_vina.pdbqt

>  <grid_filename>  (1) 
syk_vina.pdbqt

>  <docking_score>  (1) 
-9.405

>  <compound_name>  (1) 
CHEMBL3265019

>  <index_string>  (1) 
21:0:0

>  <s_m_Source_Path>  (1) 
/projects/mai/users/kmzp800_harry/pmx_colab/docking_jobs/syk/vina_prep/output

>  <s_m_Source_File>  (1) 
ptp1b_docked_conformers.sdf

>  <i_m_Source_File_Index>  (1) 
22

$$$$
