11:0:0
     RDKit          3D

 45 48  0  0  1  0  0  0  0  0999 V2000
   34.5653   35.1852   21.1658 C   0  0  0  0  0  0  0  0  0  0  0  0
   34.1993   39.0094   24.0430 C   0  0  0  0  0  0  0  0  0  0  0  0
   34.6760   38.0175   21.6033 C   0  0  0  0  0  0  0  0  0  0  0  0
   34.8787   37.4481   20.2878 C   0  0  0  0  0  0  0  0  0  0  0  0
   34.4047   37.1501   22.6752 C   0  0  0  0  0  0  0  0  0  0  0  0
   34.6999   39.4006   21.8607 C   0  0  0  0  0  0  0  0  0  0  0  0
   34.1634   34.8490   23.5662 C   0  0  0  0  0  0  0  0  0  0  0  0
   34.4674   39.8983   23.0892 N   0  0  0  0  0  0  0  0  0  0  0  0
   34.5482   33.9651   20.9745 O   0  0  0  0  0  0  0  0  0  0  0  0
   34.3904   35.7339   22.4127 N   0  0  0  0  0  0  0  0  0  0  0  0
   34.1648   37.6795   23.8998 N   0  0  0  0  0  0  0  0  0  0  0  0
   33.9429   39.5493   25.2884 N   0  0  0  0  0  0  0  0  0  0  0  0
   35.0553   38.1409   19.4768 H   0  0  0  0  0  0  0  0  0  0  0  0
   34.8960   40.1119   21.0756 H   0  0  0  0  0  0  0  0  0  0  0  0
   34.8119   35.1303   24.3967 H   0  0  0  0  0  0  0  0  0  0  0  0
   33.1301   34.9401   23.9016 H   0  0  0  0  0  0  0  0  0  0  0  0
   34.3568   33.7921   23.3766 H   0  0  0  0  0  0  0  0  0  0  0  0
   33.9616   40.5619   25.3597 H   0  0  0  0  0  0  0  0  0  0  0  0
   34.7967   36.1229   20.0543 C   0  0  0  0  0  0  0  0  0  0  0  0
   35.1324   35.0000   15.9201 C   0  0  0  0  0  0  0  0  0  0  0  0
   36.2444   35.5494   16.5900 C   0  0  0  0  0  0  0  0  0  0  0  0
   36.1655   35.8647   17.9630 C   0  0  0  0  0  0  0  0  0  0  0  0
   34.9511   35.6733   18.6597 C   0  0  0  0  0  0  0  0  0  0  0  0
   33.8471   35.0998   17.9920 C   0  0  0  0  0  0  0  0  0  0  0  0
   33.9425   34.7493   16.6298 C   0  0  0  0  0  0  0  0  0  0  0  0
   35.1970   34.7488   14.8722 H   0  0  0  0  0  0  0  0  0  0  0  0
   37.1714   35.7022   16.0571 H   0  0  0  0  0  0  0  0  0  0  0  0
   37.6006   36.3493   18.7994 Cl  0  0  0  0  0  0  0  0  0  0  0  0
   32.9147   34.9351   18.5152 H   0  0  0  0  0  0  0  0  0  0  0  0
   33.0871   34.3189   16.1288 H   0  0  0  0  0  0  0  0  0  0  0  0
   33.3589   38.3507   28.8498 C   0  0  0  0  0  0  0  0  0  0  0  0
   34.0543   39.1147   27.7156 C   0  0  0  0  0  0  0  0  0  0  0  0
   33.3316   38.8262   26.3950 C   0  0  0  0  0  0  0  0  0  0  0  0
   31.8449   39.1826   26.5472 C   0  0  0  0  0  0  0  0  0  0  0  0
   31.2459   38.4435   27.7560 C   0  0  0  0  0  0  0  0  0  0  0  0
   31.9931   38.7491   28.9302 O   0  0  0  0  0  0  0  0  0  0  0  0
   33.4267   37.2732   28.6974 H   0  0  0  0  0  0  0  0  0  0  0  0
   33.8446   38.5707   29.8009 H   0  0  0  0  0  0  0  0  0  0  0  0
   35.0999   38.8121   27.6488 H   0  0  0  0  0  0  0  0  0  0  0  0
   34.0450   40.1847   27.9301 H   0  0  0  0  0  0  0  0  0  0  0  0
   33.4007   37.7525   26.2173 H   0  0  0  0  0  0  0  0  0  0  0  0
   31.7339   40.2587   26.6873 H   0  0  0  0  0  0  0  0  0  0  0  0
   31.2931   38.9245   25.6423 H   0  0  0  0  0  0  0  0  0  0  0  0
   31.2386   37.3651   27.5887 H   0  0  0  0  0  0  0  0  0  0  0  0
   30.2100   38.7449   27.9089 H   0  0  0  0  0  0  0  0  0  0  0  0
  1  9  2  0
  1 10  1  0
  1 19  1  0
  2  8  1  0
  2 11  2  0
  2 12  1  0
  3  4  1  0
  3  5  2  0
  3  6  1  0
  4 13  1  0
  4 19  2  0
  5 10  1  0
  5 11  1  0
  6  8  2  0
  6 14  1  0
  7 10  1  0
  7 15  1  0
  7 16  1  0
  7 17  1  0
 12 18  1  0
 12 33  1  0
 19 23  1  0
 20 21  2  0
 20 25  1  0
 20 26  1  0
 21 22  1  0
 21 27  1  0
 22 23  2  0
 22 28  1  0
 23 24  1  0
 24 25  2  0
 24 29  1  0
 25 30  1  0
 31 32  1  0
 31 36  1  0
 31 37  1  0
 31 38  1  0
 32 33  1  0
 32 39  1  0
 32 40  1  0
 33 34  1  0
 33 41  1  0
 34 35  1  0
 34 42  1  0
 34 43  1  0
 35 36  1  0
 35 44  1  0
 35 45  1  0
M  END
>  <s_m_entry_id>  (1) 
829

>  <s_m_Source_Path>  (1) 
/projects/mai/users/kmzp800_harry/pmx_colab/docking_jobs/p38/glide-dock_SP_p38_mcs_docking_2

>  <s_m_Source_File>  (1) 
glide-dock_SP_p38_mcs_docking_2_pv.maegz

>  <i_m_Source_File_Index>  (1) 
13

>  <s_pdb_PDB_TITLE>  (1) 
MX MODEL

>  <chiral flag>  (1) 
1

>  <r_i_docking_score>  (1) 
-7.31399636266853

>  <r_i_glide_gscore>  (1) 
-7.31399636266853

>  <r_i_glide_emodel>  (1) 
-62.2484744721663

>  <index_string>  (1) 
11:0:0

$$$$
