6:0:0
     RDKit          3D

 48 50  0  0  1  0  0  0  0  0999 V2000
   43.2750    9.2070   17.7090 C   0  0  0  0  0  0  0  0  0  0  0  0
   43.4420   10.4860   17.1740 C   0  0  0  0  0  0  0  0  0  0  0  0
   42.3370   11.3230   16.9560 C   0  0  0  0  0  0  0  0  0  0  0  0
   41.0590   10.8430   17.2750 C   0  0  0  0  0  0  0  0  0  0  0  0
   40.8810    9.5590   17.8110 C   0  0  0  0  0  0  0  0  0  0  0  0
   41.9960    8.7450   18.0260 C   0  0  0  0  0  0  0  0  0  0  0  0
   42.5400   12.6660   16.3590 C   0  0  0  0  0  0  0  0  0  0  0  0
   43.4440   13.8780   17.1030 S   0  0  0  0  0  0  0  0  0  0  0  0
   43.2490   15.0430   15.9150 C   0  0  0  0  0  0  0  0  0  0  0  0
   42.4710   14.5090   14.8910 C   0  0  0  0  0  0  0  0  0  0  0  0
   42.0520   13.1720   15.1390 C   0  0  0  0  0  0  0  0  0  0  0  0
   40.8270   12.2060   14.0120 Br  0  0  0  0  0  0  0  0  0  0  0  0
   43.8290   16.3940   15.9670 C   0  0  0  0  0  0  0  0  0  0  0  0
   45.0270   16.5520   16.3200 O   0  0  0  0  0  0  0  0  0  0  0  0
   43.0670   17.5060   15.6290 O   0  0  0  0  0  0  0  0  0  0  0  0
   42.1580   15.2770   13.7610 O   0  0  0  0  0  0  0  0  0  0  0  0
   40.8630   15.7650   13.4480 C   0  0  0  0  0  0  0  0  0  0  0  0
   40.9780   17.0790   12.7630 C   0  0  0  0  0  0  0  0  0  0  0  0
   42.0330   17.3780   12.1470 O   0  0  0  0  0  0  0  0  0  0  0  0
   39.9370   17.9950   12.8410 O   0  0  0  0  0  0  0  0  0  0  0  0
   39.5780    9.0590   18.1410 N   0  0  0  0  0  0  0  0  0  0  0  0
   38.7840    8.1580   17.3090 C   0  0  0  0  0  0  0  0  0  0  0  0
   39.0880    6.6920   17.6510 C   0  0  0  0  0  0  0  0  0  0  0  0
   38.5580    5.6780   16.6340 C   0  0  0  0  0  0  0  0  0  0  0  0
   37.0730    5.8600   16.3000 C   0  0  0  0  0  0  0  0  0  0  0  0
   36.7320    7.2010   15.6310 C   0  0  0  0  0  0  0  0  0  0  0  0
   37.9200    7.8220   14.8920 C   0  0  0  0  0  0  0  0  0  0  0  0
   38.9190    8.5280   15.8240 C   0  0  0  0  0  0  0  0  0  0  0  0
   44.1506    8.5637   17.8806 H   0  0  0  0  0  0  0  0  0  0  0  0
   44.4516   10.8416   16.9205 H   0  0  0  0  0  0  0  0  0  0  0  0
   40.1817   11.4836   17.1022 H   0  0  0  0  0  0  0  0  0  0  0  0
   41.8659    7.7369   18.4464 H   0  0  0  0  0  0  0  0  0  0  0  0
   40.3525   15.0503   12.7858 H   0  0  0  0  0  0  0  0  0  0  0  0
   40.2839   15.8857   14.3754 H   0  0  0  0  0  0  0  0  0  0  0  0
   39.1688    9.3595   19.0372 H   0  0  0  0  0  0  0  0  0  0  0  0
   37.7145    8.2831   17.5339 H   0  0  0  0  0  0  0  0  0  0  0  0
   40.1797    6.5741   17.7163 H   0  0  0  0  0  0  0  0  0  0  0  0
   38.5739    6.4799   18.6001 H   0  0  0  0  0  0  0  0  0  0  0  0
   39.1382    5.7817   15.7053 H   0  0  0  0  0  0  0  0  0  0  0  0
   38.6662    4.6814   17.0869 H   0  0  0  0  0  0  0  0  0  0  0  0
   36.7716    5.0498   15.6197 H   0  0  0  0  0  0  0  0  0  0  0  0
   36.5314    5.8402   17.2572 H   0  0  0  0  0  0  0  0  0  0  0  0
   35.9184    7.0355   14.9094 H   0  0  0  0  0  0  0  0  0  0  0  0
   36.4393    7.9004   16.4280 H   0  0  0  0  0  0  0  0  0  0  0  0
   38.4509    7.0237   14.3527 H   0  0  0  0  0  0  0  0  0  0  0  0
   37.5154    8.5860   14.2119 H   0  0  0  0  0  0  0  0  0  0  0  0
   38.7701    9.6135   15.7265 H   0  0  0  0  0  0  0  0  0  0  0  0
   39.9210    8.1986   15.5118 H   0  0  0  0  0  0  0  0  0  0  0  0
  1  6  2  0
  1  2  1  0
  1 29  1  0
  2  3  2  0
  2 30  1  0
  3  4  1  0
  3  7  1  0
  4  5  2  0
  4 31  1  0
  5  6  1  0
  5 21  1  0
  6 32  1  0
  7  8  1  0
  7 11  2  0
  8  9  1  0
  9 13  1  0
  9 10  2  0
 10 11  1  0
 10 16  1  0
 11 12  1  0
 13 14  1  0
 13 15  2  0
 16 17  1  0
 17 18  1  0
 17 33  1  0
 17 34  1  0
 18 20  1  0
 18 19  2  0
 21 22  1  0
 21 35  1  0
 22 23  1  0
 22 28  1  0
 22 36  1  0
 23 24  1  0
 23 37  1  0
 23 38  1  0
 24 25  1  0
 24 39  1  0
 24 40  1  0
 25 26  1  0
 25 41  1  0
 25 42  1  0
 26 27  1  0
 26 43  1  0
 26 44  1  0
 27 28  1  0
 27 45  1  0
 27 46  1  0
 28 47  1  0
 28 48  1  0
M  CHG  2  14  -1  20  -1
M  END
>  <s_m_entry_id>  (1) 
1223

>  <MODEL>  (1) 
10

>  <REMARK>  (1) 
 VINA RESULT:    -6.319      1.660      2.189
 INTER + INTRA:          -9.833
 INTER:                  -9.021
 INTRA:                  -0.811
 UNBOUND:                -0.928
  Name = /scratch/kmzp800/tmphkhmfemm/tmplw9afh43.pdb
  7 active torsions:
  status: ('A' for Active; 'I' for Inactive)
    1  A    between atoms: C3_3  and  C4_4
    2  A    between atoms: C5_6  and  C6_7
    3  A    between atoms: C7_10  and  O3_11
    4  A    between atoms: O3_11  and  C8_12
    5  A    between atoms: C8_12  and  C9_13
    6  A    between atoms: C12_19  and  N1_20
    7  A    between atoms: N1_20  and  C13_21
                            x       y       z     vdW  Elec       q    Type
                         _______ _______ _______ _____ _____    ______ ____

>  <TORSDO>  (1) 
F 7

>  <grid_id>  (1) 
ptp1b-prepared

>  <grid_path>  (1) 
ptp1b_vina.pdbqt

>  <grid_filename>  (1) 
ptp1b_vina.pdbqt

>  <docking_score>  (1) 
-6.319

>  <compound_name>  (1) 
lig_23476

>  <index_string>  (1) 
6:0:0

>  <s_m_Source_Path>  (1) 
/projects/mai/users/kmzp800_harry/pmx_colab/docking_jobs/ptp1b

>  <s_m_Source_File>  (1) 
ptp1b_confs_vina_mcs.sdf

>  <i_m_Source_File_Index>  (1) 
7

$$$$
