19:0:0
     RDKit          3D

 55 58  0  0  1  0  0  0  0  0999 V2000
   34.5549   35.0780   21.1912 C   0  0  0  0  0  0  0  0  0  0  0  0
   34.2380   38.9821   23.9128 C   0  0  0  0  0  0  0  0  0  0  0  0
   34.8033   37.8964   21.5252 C   0  0  0  0  0  0  0  0  0  0  0  0
   35.0906   37.2729   20.2399 C   0  0  0  0  0  0  0  0  0  0  0  0
   34.4622   37.0784   22.6213 C   0  0  0  0  0  0  0  0  0  0  0  0
   34.8344   39.2860   21.7377 C   0  0  0  0  0  0  0  0  0  0  0  0
   34.9890   35.9363   20.0903 C   0  0  0  0  0  0  0  0  0  0  0  0
   34.5515   39.8345   22.9384 N   0  0  0  0  0  0  0  0  0  0  0  0
   34.3746   33.8751   21.0111 O   0  0  0  0  0  0  0  0  0  0  0  0
   34.3992   35.6574   22.4176 N   0  0  0  0  0  0  0  0  0  0  0  0
   34.2017   37.6543   23.8145 N   0  0  0  0  0  0  0  0  0  0  0  0
   33.9351   39.5492   25.1343 N   0  0  0  0  0  0  0  0  0  0  0  0
   35.3826   37.9151   19.4214 H   0  0  0  0  0  0  0  0  0  0  0  0
   35.0884   39.9494   20.9289 H   0  0  0  0  0  0  0  0  0  0  0  0
   33.9615   40.5613   25.1934 H   0  0  0  0  0  0  0  0  0  0  0  0
   34.2505   34.7696   23.5913 C   0  0  0  0  0  0  0  0  0  0  0  0
   34.9997   33.9786   23.5177 H   0  0  0  0  0  0  0  0  0  0  0  0
   34.5102   35.2772   24.5203 H   0  0  0  0  0  0  0  0  0  0  0  0
   32.8702   34.1082   23.7367 C   0  0  0  0  0  0  0  0  0  0  0  0
   32.4810   33.7345   22.7900 H   0  0  0  0  0  0  0  0  0  0  0  0
   32.9460   33.2555   24.4124 H   0  0  0  0  0  0  0  0  0  0  0  0
   31.6403   35.2680   24.4641 S   0  0  0  0  0  0  0  0  0  0  0  0
   32.0919   35.6099   25.8200 O   0  0  0  0  0  0  0  0  0  0  0  0
   31.3704   36.3353   23.4905 O   0  0  0  0  0  0  0  0  0  0  0  0
   30.1462   34.2182   24.6038 C   0  0  0  0  0  0  0  0  0  0  0  0
   29.3546   34.7921   25.0881 H   0  0  0  0  0  0  0  0  0  0  0  0
   29.8109   33.9248   23.6092 H   0  0  0  0  0  0  0  0  0  0  0  0
   30.3681   33.3370   25.2034 H   0  0  0  0  0  0  0  0  0  0  0  0
   33.3380   38.4727   28.7365 C   0  0  0  0  0  0  0  0  0  0  0  0
   34.0282   39.2002   27.5734 C   0  0  0  0  0  0  0  0  0  0  0  0
   33.3314   38.8413   26.2576 C   0  0  0  0  0  0  0  0  0  0  0  0
   31.8305   39.1495   26.3767 C   0  0  0  0  0  0  0  0  0  0  0  0
   31.2382   38.4646   27.6217 C   0  0  0  0  0  0  0  0  0  0  0  0
   31.9645   38.8487   28.7852 O   0  0  0  0  0  0  0  0  0  0  0  0
   33.4308   37.3902   28.6318 H   0  0  0  0  0  0  0  0  0  0  0  0
   33.8097   38.7434   29.6810 H   0  0  0  0  0  0  0  0  0  0  0  0
   35.0820   38.9221   27.5325 H   0  0  0  0  0  0  0  0  0  0  0  0
   33.9894   40.2783   27.7390 H   0  0  0  0  0  0  0  0  0  0  0  0
   33.4459   37.7662   26.1239 H   0  0  0  0  0  0  0  0  0  0  0  0
   31.6760   40.2271   26.4494 H   0  0  0  0  0  0  0  0  0  0  0  0
   31.3023   38.8151   25.4827 H   0  0  0  0  0  0  0  0  0  0  0  0
   31.2546   37.3798   27.5195 H   0  0  0  0  0  0  0  0  0  0  0  0
   30.1935   38.7487   27.7483 H   0  0  0  0  0  0  0  0  0  0  0  0
   35.2207   35.2954   18.8999 O   0  0  0  0  0  0  0  0  0  0  0  0
   37.9360   36.6069   15.9948 C   0  0  0  0  0  0  0  0  0  0  0  0
   38.4152   36.3493   17.2946 C   0  0  0  0  0  0  0  0  0  0  0  0
   37.5109   36.0054   18.3199 C   0  0  0  0  0  0  0  0  0  0  0  0
   36.1523   35.7507   18.0026 C   0  0  0  0  0  0  0  0  0  0  0  0
   35.7518   35.8358   16.6633 C   0  0  0  0  0  0  0  0  0  0  0  0
   36.5997   36.3491   15.6789 C   0  0  0  0  0  0  0  0  0  0  0  0
   38.7320   37.1493   15.0576 F   0  0  0  0  0  0  0  0  0  0  0  0
   39.4497   36.5504   17.5317 H   0  0  0  0  0  0  0  0  0  0  0  0
   37.9660   35.9206   19.5881 F   0  0  0  0  0  0  0  0  0  0  0  0
   34.7369   35.5666   16.4041 H   0  0  0  0  0  0  0  0  0  0  0  0
   36.2241   36.5460   14.6893 H   0  0  0  0  0  0  0  0  0  0  0  0
  1  7  1  0
  1  9  2  0
  1 10  1  0
  2  8  1  0
  2 11  2  0
  2 12  1  0
  3  4  1  0
  3  5  2  0
  3  6  1  0
  4  7  2  0
  4 13  1  0
  5 10  1  0
  5 11  1  0
  6  8  2  0
  6 14  1  0
  7 44  1  0
 10 16  1  0
 12 15  1  0
 12 31  1  0
 16 17  1  0
 16 18  1  0
 16 19  1  0
 19 20  1  0
 19 21  1  0
 19 22  1  0
 22 23  2  0
 22 24  2  0
 22 25  1  0
 25 26  1  0
 25 27  1  0
 25 28  1  0
 29 30  1  0
 29 34  1  0
 29 35  1  0
 29 36  1  0
 30 31  1  0
 30 37  1  0
 30 38  1  0
 31 32  1  0
 31 39  1  0
 32 33  1  0
 32 40  1  0
 32 41  1  0
 33 34  1  0
 33 42  1  0
 33 43  1  0
 44 48  1  0
 45 46  2  0
 45 50  1  0
 45 51  1  0
 46 47  1  0
 46 52  1  0
 47 48  2  0
 47 53  1  0
 48 49  1  0
 49 50  2  0
 49 54  1  0
 50 55  1  0
M  END
>  <s_m_entry_id>  (1) 
837

>  <s_m_Source_Path>  (1) 
/projects/mai/users/kmzp800_harry/pmx_colab/docking_jobs/p38/glide-dock_SP_p38_mcs_docking_2

>  <s_m_Source_File>  (1) 
glide-dock_SP_p38_mcs_docking_2_pv.maegz

>  <i_m_Source_File_Index>  (1) 
21

>  <s_pdb_PDB_TITLE>  (1) 
MX MODEL

>  <r_i_docking_score>  (1) 
-7.21599912178052

>  <r_i_glide_gscore>  (1) 
-7.21599912178052

>  <r_i_glide_emodel>  (1) 
-59.7884828733768

>  <index_string>  (1) 
19:0:0

$$$$
