28:0:0
     RDKit          3D

 55 58  0  0  1  0  0  0  0  0999 V2000
   33.5670   35.9980   20.0950 C   0  0  0  0  0  0  0  0  0  0  0  0
   33.5480   37.3820   20.2530 C   0  0  0  0  0  0  0  0  0  0  0  0
   33.3450   37.9330   21.5120 C   0  0  0  0  0  0  0  0  0  0  0  0
   33.3120   39.3120   21.6980 C   0  0  0  0  0  0  0  0  0  0  0  0
   33.1020   39.8210   22.9400 N   0  0  0  0  0  0  0  0  0  0  0  0
   32.9220   39.0020   24.0110 C   0  0  0  0  0  0  0  0  0  0  0  0
   32.6900   39.5700   25.3020 N   0  0  0  0  0  0  0  0  0  0  0  0
   32.9550   37.6520   23.8460 N   0  0  0  0  0  0  0  0  0  0  0  0
   33.1620   37.0930   22.6220 C   0  0  0  0  0  0  0  0  0  0  0  0
   33.1910   35.7320   22.4660 N   0  0  0  0  0  0  0  0  0  0  0  0
   33.4170   35.1750   21.2320 C   0  0  0  0  0  0  0  0  0  0  0  0
   33.5130   33.9210   21.1120 O   0  0  0  0  0  0  0  0  0  0  0  0
   32.4730   38.7570   26.4890 C   0  0  0  0  0  0  0  0  0  0  0  0
   32.7660   39.5670   27.7580 C   0  0  0  0  0  0  0  0  0  0  0  0
   32.1610   38.9030   29.0050 C   0  0  0  0  0  0  0  0  0  0  0  0
   31.7400   37.5890   28.7360 O   0  0  0  0  0  0  0  0  0  0  0  0
   30.6300   37.7030   27.8800 C   0  0  0  0  0  0  0  0  0  0  0  0
   31.0450   38.2040   26.4870 C   0  0  0  0  0  0  0  0  0  0  0  0
   33.7730   35.4760   18.8100 O   0  0  0  0  0  0  0  0  0  0  0  0
   37.3570   35.9880   18.0830 C   0  0  0  0  0  0  0  0  0  0  0  0
   36.1470   35.8650   18.7690 C   0  0  0  0  0  0  0  0  0  0  0  0
   34.9640   35.5810   18.0770 C   0  0  0  0  0  0  0  0  0  0  0  0
   35.0000   35.4520   16.6720 C   0  0  0  0  0  0  0  0  0  0  0  0
   33.8680   35.2460   15.9560 F   0  0  0  0  0  0  0  0  0  0  0  0
   36.2160   35.5760   15.9910 C   0  0  0  0  0  0  0  0  0  0  0  0
   37.3930   35.8360   16.6950 C   0  0  0  0  0  0  0  0  0  0  0  0
   38.5680   35.9540   16.0310 F   0  0  0  0  0  0  0  0  0  0  0  0
   33.0140   34.8690   23.6380 C   0  0  0  0  0  0  0  0  0  0  0  0
   31.5410   34.7470   24.0210 C   0  0  0  0  0  0  0  0  0  0  0  0
   30.8140   33.2400   23.4020 S   0  0  0  0  0  0  0  0  0  0  0  0
   30.1480   33.5270   22.0860 O   0  0  0  0  0  0  0  0  0  0  0  0
   31.8800   32.2000   23.1990 O   0  0  0  0  0  0  0  0  0  0  0  0
   29.5940   32.6300   24.5420 C   0  0  0  0  0  0  0  0  0  0  0  0
   33.6936   38.0377   19.3819 H   0  0  0  0  0  0  0  0  0  0  0  0
   33.4555   39.9877   20.8419 H   0  0  0  0  0  0  0  0  0  0  0  0
   32.6759   40.5956   25.3957 H   0  0  0  0  0  0  0  0  0  0  0  0
   33.1685   37.9049   26.4769 H   0  0  0  0  0  0  0  0  0  0  0  0
   33.8555   39.6450   27.8881 H   0  0  0  0  0  0  0  0  0  0  0  0
   32.3119   40.5623   27.6435 H   0  0  0  0  0  0  0  0  0  0  0  0
   32.9198   38.8793   29.8010 H   0  0  0  0  0  0  0  0  0  0  0  0
   31.2842   39.4893   29.3171 H   0  0  0  0  0  0  0  0  0  0  0  0
   30.1536   36.7167   27.7784 H   0  0  0  0  0  0  0  0  0  0  0  0
   29.9303   38.4314   28.3156 H   0  0  0  0  0  0  0  0  0  0  0  0
   30.3542   39.0006   26.1737 H   0  0  0  0  0  0  0  0  0  0  0  0
   31.0063   37.3538   25.7901 H   0  0  0  0  0  0  0  0  0  0  0  0
   38.2827   36.2048   18.6362 H   0  0  0  0  0  0  0  0  0  0  0  0
   36.1234   35.9922   19.8614 H   0  0  0  0  0  0  0  0  0  0  0  0
   36.2446   35.4682   14.8967 H   0  0  0  0  0  0  0  0  0  0  0  0
   33.4085   33.8681   23.4086 H   0  0  0  0  0  0  0  0  0  0  0  0
   33.5562   35.3172   24.4837 H   0  0  0  0  0  0  0  0  0  0  0  0
   31.4568   34.7579   25.1177 H   0  0  0  0  0  0  0  0  0  0  0  0
   31.0014   35.5944   23.5729 H   0  0  0  0  0  0  0  0  0  0  0  0
   29.9372   32.8016   25.5729 H   0  0  0  0  0  0  0  0  0  0  0  0
   28.6433   33.1588   24.3793 H   0  0  0  0  0  0  0  0  0  0  0  0
   29.4466   31.5521   24.3793 H   0  0  0  0  0  0  0  0  0  0  0  0
  1  2  2  0
  1 11  1  0
  1 19  1  0
  2  3  1  0
  2 34  1  0
  3  4  2  0
  3  9  1  0
  4  5  1  0
  4 35  1  0
  5  6  2  0
  6  7  1  0
  6  8  1  0
  7 13  1  0
  7 36  1  0
  8  9  2  0
  9 10  1  0
 10 28  1  0
 10 11  1  0
 11 12  2  0
 13 14  1  0
 13 18  1  0
 13 37  1  0
 14 15  1  0
 14 38  1  0
 14 39  1  0
 15 16  1  0
 15 40  1  0
 15 41  1  0
 16 17  1  0
 17 18  1  0
 17 42  1  0
 17 43  1  0
 18 44  1  0
 18 45  1  0
 19 22  1  0
 20 21  2  0
 20 26  1  0
 20 46  1  0
 21 22  1  0
 21 47  1  0
 22 23  2  0
 23 24  1  0
 23 25  1  0
 25 26  2  0
 25 48  1  0
 26 27  1  0
 28 29  1  0
 28 49  1  0
 28 50  1  0
 29 30  1  0
 29 51  1  0
 29 52  1  0
 30 33  1  0
 30 31  2  0
 30 32  2  0
 33 53  1  0
 33 54  1  0
 33 55  1  0
M  END
>  <s_m_entry_id>  (1) 
1383

>  <MODEL>  (1) 
1

>  <REMARK>  (1) 
 VINA RESULT:    -8.771      0.000      0.000
 INTER + INTRA:         -12.686
 INTER:                 -11.847
 INTRA:                  -0.839
 UNBOUND:                -0.839
  Name = /scratch/kmzp800/tmprm89ok9b/tmp0bn08ixf.pdb
  7 active torsions:
  status: ('A' for Active; 'I' for Inactive)
    1  A    between atoms: C3_3  and  O1_4
    2  A    between atoms: O1_4  and  C4_5
    3  A    between atoms: N2_11  and  C9_12
    4  A    between atoms: N4_20  and  C15_21
    5  A    between atoms: C15_21  and  C16_22
    6  A    between atoms: C16_22  and  S1_23
    7  A    between atoms: S1_23  and  C17_26
                            x       y       z     vdW  Elec       q    Type
                         _______ _______ _______ _____ _____    ______ ____

>  <TORSDO>  (1) 
F 6

>  <grid_id>  (1) 
p38-prepared

>  <grid_path>  (1) 
/projects/mai/users/kmzp800_harry/pmx_colab/docking_jobs/p38/vina_docking/input_files/p38_vina.pdbqt

>  <grid_filename>  (1) 
p38_vina.pdbqt

>  <docking_score>  (1) 
-8.771

>  <compound_name>  (1) 
lig_p38a_2o

>  <index_string>  (1) 
28:0:0

>  <s_m_Source_Path>  (1) 
/projects/mai/users/kmzp800_harry/pmx_colab/docking_jobs/p38

>  <s_m_Source_File>  (1) 
p38_confs_vina_naive.sdf

>  <i_m_Source_File_Index>  (1) 
30

$$$$
