7:0:0
     RDKit          3D

 48 51  0  0  1  0  0  0  0  0999 V2000
   -4.5440   -3.1945   15.5517 C   0  0  0  0  0  0  0  0  0  0  0  0
   -3.8945   -2.2652   14.6939 O   0  0  0  0  0  0  0  0  0  0  0  0
   -2.5343   -2.0907   14.8290 C   0  0  0  0  0  0  0  0  0  0  0  0
   -1.7310   -2.8469   15.7134 C   0  0  0  0  0  0  0  0  0  0  0  0
   -0.3530   -2.5972   15.8174 C   0  0  0  0  0  0  0  0  0  0  0  0
    0.2502   -1.5770   15.0665 C   0  0  0  0  0  0  0  0  0  0  0  0
    1.6154   -1.3501   15.2871 N   0  0  0  0  0  0  0  0  0  0  0  0
    2.5243   -0.4325   14.7281 C   0  0  0  0  0  0  0  0  0  0  0  0
    2.1925    0.3677   13.7513 N   0  0  0  0  0  0  0  0  0  0  0  0
    3.1223    1.2457   13.2357 C   0  0  0  0  0  0  0  0  0  0  0  0
    4.4272    1.2777   13.6796 C   0  0  0  0  0  0  0  0  0  0  0  0
    4.7625    0.4720   14.7187 N   0  0  0  0  0  0  0  0  0  0  0  0
    5.9119    0.3685   15.4766 C   0  0  0  0  0  0  0  0  0  0  0  0
    5.6036   -0.4954   16.4934 C   0  0  0  0  0  0  0  0  0  0  0  0
    4.3550   -1.0542   16.3352 N   0  0  0  0  0  0  0  0  0  0  0  0
    3.8274   -0.4166   15.2939 C   0  0  0  0  0  0  0  0  0  0  0  0
    2.6481    2.1558   12.1635 C   0  0  0  0  0  0  0  0  0  0  0  0
    3.5654    2.6438   11.2000 C   0  0  0  0  0  0  0  0  0  0  0  0
    3.1551    3.4694   10.1443 C   0  0  0  0  0  0  0  0  0  0  0  0
    1.8068    3.8302   10.0404 C   0  0  0  0  0  0  0  0  0  0  0  0
    0.8723    3.3966   11.0086 C   0  0  0  0  0  0  0  0  0  0  0  0
    1.2936    2.5549   12.0613 C   0  0  0  0  0  0  0  0  0  0  0  0
   -0.5562    3.8462   10.9207 C   0  0  0  0  0  0  0  0  0  0  0  0
   -1.4762    3.1708   11.3537 O   0  0  0  0  0  0  0  0  0  0  0  0
   -0.7681    5.0433   10.3767 N   0  0  0  0  0  0  0  0  0  0  0  0
   -0.5490   -0.8377   14.1717 C   0  0  0  0  0  0  0  0  0  0  0  0
   -1.9335   -1.0820   14.0459 C   0  0  0  0  0  0  0  0  0  0  0  0
   -2.7471   -0.3627   13.1984 O   0  0  0  0  0  0  0  0  0  0  0  0
   -2.1767    0.6453   12.3950 C   0  0  0  0  0  0  0  0  0  0  0  0
   -5.6135   -3.2105   15.3451 H   0  0  0  0  0  0  0  0  0  0  0  0
   -4.1663   -4.2126   15.4055 H   0  0  0  0  0  0  0  0  0  0  0  0
   -4.4020   -2.9303   16.5966 H   0  0  0  0  0  0  0  0  0  0  0  0
   -2.1542   -3.6227   16.3306 H   0  0  0  0  0  0  0  0  0  0  0  0
    0.2428   -3.1880   16.5007 H   0  0  0  0  0  0  0  0  0  0  0  0
    2.0360   -1.9662   15.9742 H   0  0  0  0  0  0  0  0  0  0  0  0
    5.1936    1.9536   13.3183 H   0  0  0  0  0  0  0  0  0  0  0  0
    6.7761    0.9795   15.2573 H   0  0  0  0  0  0  0  0  0  0  0  0
    6.1425   -0.7384   17.3812 H   0  0  0  0  0  0  0  0  0  0  0  0
    4.6025    2.3542   11.2315 H   0  0  0  0  0  0  0  0  0  0  0  0
    3.8633    3.8110    9.4023 H   0  0  0  0  0  0  0  0  0  0  0  0
    1.5037    4.4560    9.2180 H   0  0  0  0  0  0  0  0  0  0  0  0
    0.5908    2.2179   12.8075 H   0  0  0  0  0  0  0  0  0  0  0  0
   -1.7104    5.3938   10.3056 H   0  0  0  0  0  0  0  0  0  0  0  0
    0.0133    5.5929   10.0582 H   0  0  0  0  0  0  0  0  0  0  0  0
   -0.1120   -0.0534   13.5861 H   0  0  0  0  0  0  0  0  0  0  0  0
   -2.9574    1.0856   11.7686 H   0  0  0  0  0  0  0  0  0  0  0  0
   -1.7481    1.4355   13.0154 H   0  0  0  0  0  0  0  0  0  0  0  0
   -1.4125    0.2493   11.7259 H   0  0  0  0  0  0  0  0  0  0  0  0
  1  2  1  0
  1 30  1  0
  1 31  1  0
  1 32  1  0
  2  3  1  0
  3  4  2  0
  3 27  1  0
  4  5  1  0
  4 33  1  0
  5  6  2  0
  5 34  1  0
  6  7  1  0
  6 26  1  0
  7  8  1  0
  7 35  1  0
  8  9  2  0
  8 16  1  0
  9 10  1  0
 10 11  2  0
 10 17  1  0
 11 12  1  0
 11 36  1  0
 12 13  1  0
 12 16  1  0
 13 14  2  0
 13 37  1  0
 14 15  1  0
 14 38  1  0
 15 16  2  0
 17 18  2  0
 17 22  1  0
 18 19  1  0
 18 39  1  0
 19 20  2  0
 19 40  1  0
 20 21  1  0
 20 41  1  0
 21 22  2  0
 21 23  1  0
 22 42  1  0
 23 24  2  0
 23 25  1  0
 25 43  1  0
 25 44  1  0
 26 27  2  0
 26 45  1  0
 27 28  1  0
 28 29  1  0
 29 46  1  0
 29 47  1  0
 29 48  1  0
M  END
>  <s_m_entry_id>  (1) 
1109

>  <IC50[nM]>  (1) 
27.1

>  <s_m_Source_Path>  (1) 
/projects/mai/users/kmzp800_harry/pmx_colab/docking_jobs/syk

>  <s_m_Source_File>  (1) 
tnks2_lig.sdf

>  <i_m_Source_File_Index>  (1) 
9

>  <s_m_job_name>  (1) 
glide-dock_SP_syk_mcs

>  <r_i_docking_score>  (1) 
-6.71446457650168

>  <r_i_glide_gscore>  (1) 
-6.71446457650168

>  <r_i_glide_emodel>  (1) 
-47.7174803814856

>  <index_string>  (1) 
7:0:0

$$$$
