24:0:0
     RDKit          3D

 50 54  0  0  1  0  0  0  0  0999 V2000
   -4.5220   -3.2427   15.5079 C   0  0  0  0  0  0  0  0  0  0  0  0
   -3.8882   -2.2760   14.6828 O   0  0  0  0  0  0  0  0  0  0  0  0
   -2.5325   -2.0906   14.8248 C   0  0  0  0  0  0  0  0  0  0  0  0
   -1.7282   -2.8528   15.7055 C   0  0  0  0  0  0  0  0  0  0  0  0
   -0.3596   -2.6045   15.8172 C   0  0  0  0  0  0  0  0  0  0  0  0
    0.2495   -1.5806   15.0705 C   0  0  0  0  0  0  0  0  0  0  0  0
    1.6191   -1.3576   15.2869 N   0  0  0  0  0  0  0  0  0  0  0  0
    2.5284   -0.4366   14.7278 C   0  0  0  0  0  0  0  0  0  0  0  0
    2.1923    0.3764   13.7548 N   0  0  0  0  0  0  0  0  0  0  0  0
    3.1137    1.2594   13.2389 C   0  0  0  0  0  0  0  0  0  0  0  0
    4.4162    1.3115   13.6973 C   0  0  0  0  0  0  0  0  0  0  0  0
    4.7569    0.4979   14.7273 N   0  0  0  0  0  0  0  0  0  0  0  0
    5.9060    0.3954   15.4883 C   0  0  0  0  0  0  0  0  0  0  0  0
    5.6068   -0.4961   16.4927 C   0  0  0  0  0  0  0  0  0  0  0  0
    4.3682   -1.0598   16.3202 N   0  0  0  0  0  0  0  0  0  0  0  0
    3.8331   -0.4147   15.2871 C   0  0  0  0  0  0  0  0  0  0  0  0
    2.6401    2.1670   12.1634 C   0  0  0  0  0  0  0  0  0  0  0  0
    3.5569    2.6688   11.2017 C   0  0  0  0  0  0  0  0  0  0  0  0
    3.1426    3.4924   10.1407 C   0  0  0  0  0  0  0  0  0  0  0  0
    1.7918    3.8512   10.0239 C   0  0  0  0  0  0  0  0  0  0  0  0
    1.0054    4.6117    9.1172 C   0  0  0  0  0  0  0  0  0  0  0  0
   -0.2529    4.6464    9.4908 N   0  0  0  0  0  0  0  0  0  0  0  0
   -0.3325    3.9287   10.6411 N   0  0  0  0  0  0  0  0  0  0  0  0
   -1.6152    3.9045   11.3224 C   0  0  0  0  0  0  0  0  0  0  0  0
    0.8833    3.3886   11.0182 C   0  0  0  0  0  0  0  0  0  0  0  0
    1.2902    2.5550   12.0728 C   0  0  0  0  0  0  0  0  0  0  0  0
   -0.5472   -0.8308   14.1732 C   0  0  0  0  0  0  0  0  0  0  0  0
   -1.9342   -1.0791   14.0401 C   0  0  0  0  0  0  0  0  0  0  0  0
   -2.7512   -0.3507   13.1919 O   0  0  0  0  0  0  0  0  0  0  0  0
   -2.1729    0.6508   12.3668 C   0  0  0  0  0  0  0  0  0  0  0  0
   -5.5825   -3.2682   15.2914 H   0  0  0  0  0  0  0  0  0  0  0  0
   -4.1279   -4.2436   15.3220 H   0  0  0  0  0  0  0  0  0  0  0  0
   -4.4083   -3.0067   16.5700 H   0  0  0  0  0  0  0  0  0  0  0  0
   -2.1456   -3.6360   16.3151 H   0  0  0  0  0  0  0  0  0  0  0  0
    0.2243   -3.2081   16.4974 H   0  0  0  0  0  0  0  0  0  0  0  0
    2.0551   -1.9805   15.9594 H   0  0  0  0  0  0  0  0  0  0  0  0
    5.1809    1.9914   13.3363 H   0  0  0  0  0  0  0  0  0  0  0  0
    6.7637    1.0141   15.2677 H   0  0  0  0  0  0  0  0  0  0  0  0
    6.1566   -0.7398   17.3646 H   0  0  0  0  0  0  0  0  0  0  0  0
    4.6077    2.3998   11.2467 H   0  0  0  0  0  0  0  0  0  0  0  0
    3.8682    3.8422    9.4213 H   0  0  0  0  0  0  0  0  0  0  0  0
    1.3019    5.1424    8.2255 H   0  0  0  0  0  0  0  0  0  0  0  0
   -1.6648    3.0809   12.0124 H   0  0  0  0  0  0  0  0  0  0  0  0
   -1.7204    4.8224   11.9158 H   0  0  0  0  0  0  0  0  0  0  0  0
   -2.4327    3.8218   10.6026 H   0  0  0  0  0  0  0  0  0  0  0  0
    0.5823    2.2134   12.8125 H   0  0  0  0  0  0  0  0  0  0  0  0
   -0.0823   -0.0579   13.5934 H   0  0  0  0  0  0  0  0  0  0  0  0
   -2.9500    1.1457   11.7849 H   0  0  0  0  0  0  0  0  0  0  0  0
   -1.6679    1.3835   12.9890 H   0  0  0  0  0  0  0  0  0  0  0  0
   -1.4570    0.2276   11.6601 H   0  0  0  0  0  0  0  0  0  0  0  0
  1  2  1  0
  1 31  1  0
  1 32  1  0
  1 33  1  0
  2  3  1  0
  3  4  2  0
  3 28  1  0
  4  5  1  0
  4 34  1  0
  5  6  2  0
  5 35  1  0
  6  7  1  0
  6 27  1  0
  7  8  1  0
  7 36  1  0
  8  9  2  0
  8 16  1  0
  9 10  1  0
 10 11  2  0
 10 17  1  0
 11 12  1  0
 11 37  1  0
 12 13  1  0
 12 16  1  0
 13 14  2  0
 13 38  1  0
 14 15  1  0
 14 39  1  0
 15 16  2  0
 17 18  2  0
 17 26  1  0
 18 19  1  0
 18 40  1  0
 19 20  2  0
 19 41  1  0
 20 21  1  0
 20 25  1  0
 21 22  2  0
 21 42  1  0
 22 23  1  0
 23 24  1  0
 23 25  1  0
 24 43  1  0
 24 44  1  0
 24 45  1  0
 25 26  2  0
 26 46  1  0
 27 28  2  0
 27 47  1  0
 28 29  1  0
 29 30  1  0
 30 48  1  0
 30 49  1  0
 30 50  1  0
M  END
>  <s_m_entry_id>  (1) 
1101

>  <IC50[nM]>  (1) 
12.3

>  <s_m_Source_Path>  (1) 
/projects/mai/users/kmzp800_harry/pmx_colab/docking_jobs/syk

>  <s_m_Source_File>  (1) 
tnks2_lig.sdf

>  <i_m_Source_File_Index>  (1) 
26

>  <s_m_job_name>  (1) 
glide-dock_SP_syk_mcs

>  <r_i_docking_score>  (1) 
-6.837495562085

>  <r_i_glide_gscore>  (1) 
-6.837495562085

>  <r_i_glide_emodel>  (1) 
-48.1267908837617

>  <index_string>  (1) 
24:0:0

$$$$
