22:0:0
     RDKit          3D

 37 39  0  0  1  0  0  0  0  0999 V2000
  -14.4384  -14.8413  -27.6828 C   0  0  0  0  0  0  0  0  0  0  0  0
  -15.0289  -15.6383  -26.6875 C   0  0  0  0  0  0  0  0  0  0  0  0
  -14.5252  -13.4432  -27.5935 C   0  0  0  0  0  0  0  0  0  0  0  0
  -15.7545  -15.0399  -25.6296 C   0  0  0  0  0  0  0  0  0  0  0  0
  -14.8485  -17.0204  -26.7489 N   0  0  0  0  0  0  0  0  0  0  0  0
  -15.2365  -12.8495  -26.5415 C   0  0  0  0  0  0  0  0  0  0  0  0
  -15.8606  -13.6362  -25.5606 C   0  0  0  0  0  0  0  0  0  0  0  0
  -15.3257  -11.5107  -26.4861 F   0  0  0  0  0  0  0  0  0  0  0  0
  -16.3799  -15.9522  -24.6141 C   0  0  0  0  0  0  0  0  0  0  0  0
  -16.1232  -17.2496  -24.8150 N   0  0  0  0  0  0  0  0  0  0  0  0
  -17.0801  -15.5728  -23.6804 O   0  0  0  0  0  0  0  0  0  0  0  0
  -15.3752  -17.7935  -25.8505 C   0  0  0  0  0  0  0  0  0  0  0  0
  -15.2254  -19.2664  -25.9375 C   0  0  0  0  0  0  0  0  0  0  0  0
  -15.4684  -20.0924  -24.8260 C   0  0  0  0  0  0  0  0  0  0  0  0
  -15.2376  -21.4721  -24.9205 C   0  0  0  0  0  0  0  0  0  0  0  0
  -14.7647  -22.0481  -26.1184 C   0  0  0  0  0  0  0  0  0  0  0  0
  -14.5550  -21.2096  -27.2278 C   0  0  0  0  0  0  0  0  0  0  0  0
  -14.7804  -19.8430  -27.1443 C   0  0  0  0  0  0  0  0  0  0  0  0
  -14.4569  -23.5415  -26.1894 C   0  0  0  0  0  0  0  0  0  0  0  0
  -14.1710  -23.9745  -27.5128 O   0  0  0  0  0  0  0  0  0  0  0  0
  -13.1869  -23.8284  -25.3540 C   0  0  0  0  0  0  0  0  0  0  0  0
  -15.6972  -24.3199  -25.7047 C   0  0  0  0  0  0  0  0  0  0  0  0
  -13.8893  -15.2949  -28.5001 H   0  0  0  0  0  0  0  0  0  0  0  0
  -14.0584  -12.8183  -28.3406 H   0  0  0  0  0  0  0  0  0  0  0  0
  -16.4107  -13.1649  -24.7596 H   0  0  0  0  0  0  0  0  0  0  0  0
  -16.5533  -17.8996  -24.1728 H   0  0  0  0  0  0  0  0  0  0  0  0
  -15.8170  -19.6840  -23.8918 H   0  0  0  0  0  0  0  0  0  0  0  0
  -15.4111  -22.0801  -24.0488 H   0  0  0  0  0  0  0  0  0  0  0  0
  -14.1696  -21.5728  -28.1618 H   0  0  0  0  0  0  0  0  0  0  0  0
  -14.6042  -19.2388  -28.0141 H   0  0  0  0  0  0  0  0  0  0  0  0
  -13.9479  -24.8927  -27.5027 H   0  0  0  0  0  0  0  0  0  0  0  0
  -12.3479  -23.2480  -25.7368 H   0  0  0  0  0  0  0  0  0  0  0  0
  -12.8542  -24.8698  -25.3595 H   0  0  0  0  0  0  0  0  0  0  0  0
  -13.3331  -23.5335  -24.3132 H   0  0  0  0  0  0  0  0  0  0  0  0
  -16.5710  -24.0674  -26.3105 H   0  0  0  0  0  0  0  0  0  0  0  0
  -15.5790  -25.3957  -25.8042 H   0  0  0  0  0  0  0  0  0  0  0  0
  -15.9389  -24.0904  -24.6677 H   0  0  0  0  0  0  0  0  0  0  0  0
  1  2  2  0
  1  3  1  0
  1 23  1  0
  2  4  1  0
  2  5  1  0
  3  6  2  0
  3 24  1  0
  4  7  2  0
  4  9  1  0
  5 12  2  0
  6  7  1  0
  6  8  1  0
  7 25  1  0
  9 10  1  0
  9 11  2  0
 10 12  1  0
 10 26  1  0
 12 13  1  0
 13 14  2  0
 13 18  1  0
 14 15  1  0
 14 27  1  0
 15 16  2  0
 15 28  1  0
 16 17  1  0
 16 19  1  0
 17 18  2  0
 17 29  1  0
 18 30  1  0
 19 20  1  0
 19 21  1  0
 19 22  1  0
 20 31  1  0
 21 32  1  0
 21 33  1  0
 21 34  1  0
 22 35  1  0
 22 36  1  0
 22 37  1  0
M  END
>  <s_m_entry_id>  (1) 
519

>  <Name>  (1) 
5d

>  <IC50[nM]>  (1) 
10.5

>  <s_m_Source_Path>  (1) 
/projects/mai/users/kmzp800_harry/pmx_colab/docking_jobs/tnks2

>  <s_m_Source_File>  (1) 
tnks2_lig.sdf

>  <i_m_Source_File_Index>  (1) 
27

>  <s_m_job_name>  (1) 
glide-dock_SP_tnks_mcs_fallabck

>  <r_i_docking_score>  (1) 
-9.64371870313959

>  <r_i_glide_gscore>  (1) 
-9.64371870313959

>  <r_i_glide_emodel>  (1) 
-32.5620362979297

>  <index_string>  (1) 
22:0:0

$$$$
