27:0:0
     RDKit          3D

 63 68  0  0  1  0  0  0  0  0999 V2000
    5.9180   -0.5490   16.5060 C   0  0  0  0  0  0  0  0  0  0  0  0
    4.6350   -0.9670   16.3610 N   0  0  0  0  0  0  0  0  0  0  0  0
    4.1860   -0.2520   15.3150 C   0  0  0  0  0  0  0  0  0  0  0  0
    2.9130   -0.3040   14.7540 C   0  0  0  0  0  0  0  0  0  0  0  0
    1.9210   -1.1910   15.2920 N   0  0  0  0  0  0  0  0  0  0  0  0
    2.6540    0.5100   13.6880 N   0  0  0  0  0  0  0  0  0  0  0  0
    3.6010    1.3590   13.1720 C   0  0  0  0  0  0  0  0  0  0  0  0
    4.8810    1.3910   13.7600 C   0  0  0  0  0  0  0  0  0  0  0  0
    5.1080    0.5730   14.8140 N   0  0  0  0  0  0  0  0  0  0  0  0
    6.2200    0.4120   15.5430 C   0  0  0  0  0  0  0  0  0  0  0  0
    0.5720   -1.3700   14.8400 C   0  0  0  0  0  0  0  0  0  0  0  0
   -0.0560   -2.5940   15.0850 C   0  0  0  0  0  0  0  0  0  0  0  0
   -1.3680   -2.8130   14.6630 C   0  0  0  0  0  0  0  0  0  0  0  0
   -2.0750   -1.8060   13.9870 C   0  0  0  0  0  0  0  0  0  0  0  0
   -1.4540   -0.5740   13.7370 C   0  0  0  0  0  0  0  0  0  0  0  0
   -0.1310   -0.3630   14.1650 C   0  0  0  0  0  0  0  0  0  0  0  0
   -3.3910   -2.0090   13.5570 O   0  0  0  0  0  0  0  0  0  0  0  0
   -4.2850   -2.9000   14.2090 C   0  0  0  0  0  0  0  0  0  0  0  0
   -2.1670    0.4230   13.0620 O   0  0  0  0  0  0  0  0  0  0  0  0
   -1.7470    0.9640   11.8180 C   0  0  0  0  0  0  0  0  0  0  0  0
    3.2770    2.2210   12.0170 C   0  0  0  0  0  0  0  0  0  0  0  0
    4.1760    2.3340   10.9480 C   0  0  0  0  0  0  0  0  0  0  0  0
    3.8760    3.1470    9.8520 C   0  0  0  0  0  0  0  0  0  0  0  0
    2.6730    3.8530    9.8140 C   0  0  0  0  0  0  0  0  0  0  0  0
    1.7600    3.7540   10.8720 C   0  0  0  0  0  0  0  0  0  0  0  0
    2.0690    2.9360   11.9690 C   0  0  0  0  0  0  0  0  0  0  0  0
    0.4890    4.4990   10.8330 C   0  0  0  0  0  0  0  0  0  0  0  0
    0.4240    5.5890   10.2000 O   0  0  0  0  0  0  0  0  0  0  0  0
   -0.6620    3.9800   11.5140 N   0  0  0  0  0  0  0  0  0  0  0  0
   -1.9670    4.5730   11.5760 C   0  0  0  0  0  0  0  0  0  0  0  0
   -2.8520    4.5380   10.4890 C   0  0  0  0  0  0  0  0  0  0  0  0
   -4.1150    5.1290   10.5870 C   0  0  0  0  0  0  0  0  0  0  0  0
   -4.5080    5.7610   11.7730 C   0  0  0  0  0  0  0  0  0  0  0  0
   -3.6240    5.7960   12.8590 C   0  0  0  0  0  0  0  0  0  0  0  0
   -2.3610    5.2050   12.7600 C   0  0  0  0  0  0  0  0  0  0  0  0
   -5.8370    6.3820   11.8770 C   0  0  0  0  0  0  0  0  0  0  0  0
   -6.4940    6.5860   13.0340 N   0  0  0  0  0  0  0  0  0  0  0  0
   -7.6310    7.1590   12.6780 N   0  0  0  0  0  0  0  0  0  0  0  0
   -7.6700    7.3000   11.3620 N   0  0  0  0  0  0  0  0  0  0  0  0
   -6.5580    6.8210   10.8290 N   0  0  0  0  0  0  0  0  0  0  0  0
    6.6175   -0.9153   17.2719 H   0  0  0  0  0  0  0  0  0  0  0  0
    2.2119   -1.7655   16.0959 H   0  0  0  0  0  0  0  0  0  0  0  0
    5.6677    2.0571   13.3761 H   0  0  0  0  0  0  0  0  0  0  0  0
    7.1791    0.9336   15.4086 H   0  0  0  0  0  0  0  0  0  0  0  0
    0.4876   -3.3905   15.6142 H   0  0  0  0  0  0  0  0  0  0  0  0
   -1.8514   -3.7810   14.8613 H   0  0  0  0  0  0  0  0  0  0  0  0
    0.3572    0.6028   13.9678 H   0  0  0  0  0  0  0  0  0  0  0  0
   -4.1786   -2.7940   15.2987 H   0  0  0  0  0  0  0  0  0  0  0  0
   -5.3183   -2.6618   13.9166 H   0  0  0  0  0  0  0  0  0  0  0  0
   -4.0503   -3.9341   13.9166 H   0  0  0  0  0  0  0  0  0  0  0  0
   -1.0814    1.8213   11.9970 H   0  0  0  0  0  0  0  0  0  0  0  0
   -1.2077    0.1941   11.2467 H   0  0  0  0  0  0  0  0  0  0  0  0
   -2.6266    1.2956   11.2467 H   0  0  0  0  0  0  0  0  0  0  0  0
    5.1251    1.7784   10.9719 H   0  0  0  0  0  0  0  0  0  0  0  0
    4.5888    3.2306    9.0184 H   0  0  0  0  0  0  0  0  0  0  0  0
    2.4402    4.4908    8.9485 H   0  0  0  0  0  0  0  0  0  0  0  0
    1.3559    2.8535   12.8025 H   0  0  0  0  0  0  0  0  0  0  0  0
   -0.5384    3.0866   12.0114 H   0  0  0  0  0  0  0  0  0  0  0  0
   -2.5508    4.0428    9.5541 H   0  0  0  0  0  0  0  0  0  0  0  0
   -4.8027    5.0974    9.7291 H   0  0  0  0  0  0  0  0  0  0  0  0
   -3.9250    6.2909   13.7941 H   0  0  0  0  0  0  0  0  0  0  0  0
   -1.6733    5.2371   13.6179 H   0  0  0  0  0  0  0  0  0  0  0  0
   -6.3009    6.7908    9.8321 H   0  0  0  0  0  0  0  0  0  0  0  0
  1  2  1  0
  1 10  2  0
  2  3  2  0
  3  4  1  0
  3  9  1  0
  4  5  1  0
  4  6  2  0
  5 11  1  0
  6  7  1  0
  7  8  2  0
  7 21  1  0
  8  9  1  0
  9 10  1  0
 11 12  2  0
 11 16  1  0
 12 13  1  0
 13 14  2  0
 14 15  1  0
 14 17  1  0
 15 16  2  0
 15 19  1  0
 17 18  1  0
 19 20  1  0
 21 22  2  0
 21 26  1  0
 22 23  1  0
 23 24  2  0
 24 25  1  0
 25 26  2  0
 25 27  1  0
 27 29  1  0
 27 28  2  0
 29 30  1  0
 30 35  1  0
 30 31  2  0
 31 32  1  0
 32 33  2  0
 33 36  1  0
 33 34  1  0
 34 35  2  0
 36 37  2  0
 36 40  1  0
 37 38  1  0
 38 39  2  0
 39 40  1  0
  1 41  1  0
  5 42  1  0
  8 43  1  0
 10 44  1  0
 12 45  1  0
 13 46  1  0
 16 47  1  0
 18 48  1  0
 18 49  1  0
 18 50  1  0
 20 51  1  0
 20 52  1  0
 20 53  1  0
 22 54  1  0
 23 55  1  0
 24 56  1  0
 26 57  1  0
 29 58  1  0
 31 59  1  0
 32 60  1  0
 34 61  1  0
 35 62  1  0
 40 63  1  0
M  END
>  <s_m_entry_id>  (1) 
884

>  <MODEL>  (1) 
1

>  <REMARK>  (1) 
 VINA RESULT:   -11.575      0.000      0.000
 INTER + INTRA:         -15.845
 INTER:                 -14.909
 INTRA:                  -0.936
 UNBOUND:                 0.467
  Name = /scratch/kmzp800/tmppg54ekre/tmpio01je0b.pdb
  9 active torsions:
  status: ('A' for Active; 'I' for Inactive)
    1  A    between atoms: N2_5  and  C4_6
    2  A    between atoms: C7_9  and  O1_10
    3  A    between atoms: O1_10  and  C8_11
    4  A    between atoms: C9_12  and  O2_13
    5  A    between atoms: O2_13  and  C10_14
    6  A    between atoms: C12_17  and  C13_18
    7  A    between atoms: C17_22  and  C18_23
    8  A    between atoms: N4_25  and  C19_26
    9  A    between atoms: C22_29  and  C23_30
                            x       y       z     vdW  Elec       q    Type
                         _______ _______ _______ _____ _____    ______ ____

>  <TORSDO>  (1) 
F 7

>  <grid_id>  (1) 
syk-prepared

>  <grid_path>  (1) 
syk_vina.pdbqt

>  <grid_filename>  (1) 
syk_vina.pdbqt

>  <docking_score>  (1) 
-11.575

>  <compound_name>  (1) 
CHEMBL3265001

>  <index_string>  (1) 
27:0:0

>  <s_m_Source_Path>  (1) 
/projects/mai/users/kmzp800_harry/pmx_colab/docking_jobs/syk/vina_prep/output

>  <s_m_Source_File>  (1) 
ptp1b_docked_conformers.sdf

>  <i_m_Source_File_Index>  (1) 
708

$$$$
