7:0:0
     RDKit          3D

 58 63  0  0  1  0  0  0  0  0999 V2000
    1.7960   -1.4000   15.4450 N   0  0  0  0  0  0  0  0  0  0  0  0
    2.6600   -0.4340   14.8290 C   0  0  0  0  0  0  0  0  0  0  0  0
    2.2370    0.3600   13.8020 N   0  0  0  0  0  0  0  0  0  0  0  0
    3.0550    1.2850   13.2060 C   0  0  0  0  0  0  0  0  0  0  0  0
    4.3790    1.4220   13.6690 C   0  0  0  0  0  0  0  0  0  0  0  0
    4.7720    0.6220   14.6880 N   0  0  0  0  0  0  0  0  0  0  0  0
    5.9580    0.5510   15.3060 C   0  0  0  0  0  0  0  0  0  0  0  0
    5.8300   -0.4360   16.2820 C   0  0  0  0  0  0  0  0  0  0  0  0
    4.5780   -0.9570   16.2560 N   0  0  0  0  0  0  0  0  0  0  0  0
    3.9730   -0.2780   15.2670 C   0  0  0  0  0  0  0  0  0  0  0  0
    2.5450    2.1180   12.0980 C   0  0  0  0  0  0  0  0  0  0  0  0
    3.4320    2.6550   11.1270 C   0  0  0  0  0  0  0  0  0  0  0  0
    2.9560    3.4500   10.0690 C   0  0  0  0  0  0  0  0  0  0  0  0
    1.5870    3.6840   10.0170 C   0  0  0  0  0  0  0  0  0  0  0  0
    0.8190    4.4030    9.1310 C   0  0  0  0  0  0  0  0  0  0  0  0
   -0.4660    4.2970    9.5550 N   0  0  0  0  0  0  0  0  0  0  0  0
   -0.5270    3.5530   10.6560 N   0  0  0  0  0  0  0  0  0  0  0  0
    0.7260    3.1760   10.9410 C   0  0  0  0  0  0  0  0  0  0  0  0
    1.1610    2.3860   12.0000 C   0  0  0  0  0  0  0  0  0  0  0  0
   -2.2570   -2.2840   14.4950 C   0  0  0  0  0  0  0  0  0  0  0  0
   -1.6520   -1.1260   13.9810 C   0  0  0  0  0  0  0  0  0  0  0  0
   -0.3220   -0.8240   14.2860 C   0  0  0  0  0  0  0  0  0  0  0  0
    0.4280   -1.6750   15.1100 C   0  0  0  0  0  0  0  0  0  0  0  0
   -0.1700   -2.8290   15.6230 C   0  0  0  0  0  0  0  0  0  0  0  0
   -1.5000   -3.1320   15.3190 C   0  0  0  0  0  0  0  0  0  0  0  0
   -6.0350   -4.1100   13.6670 C   0  0  0  0  0  0  0  0  0  0  0  0
   -7.5460   -4.0510   13.7160 C   0  0  0  0  0  0  0  0  0  0  0  0
   -5.5400   -3.0540   12.6720 C   0  0  0  0  0  0  0  0  0  0  0  0
   -4.0310   -2.8360   12.7890 C   0  0  0  0  0  0  0  0  0  0  0  0
   -3.6270   -2.5970   14.1800 N   0  0  0  0  0  0  0  0  0  0  0  0
   -4.6370   -2.6440   15.2390 C   0  0  0  0  0  0  0  0  0  0  0  0
   -5.4880   -3.9040   15.0900 C   0  0  0  0  0  0  0  0  0  0  0  0
   -5.6520   -5.3740   13.2180 O   0  0  0  0  0  0  0  0  0  0  0  0
    2.2018   -1.9565   16.2108 H   0  0  0  0  0  0  0  0  0  0  0  0
    5.0678    2.1521   13.2190 H   0  0  0  0  0  0  0  0  0  0  0  0
    6.8535    1.1512   15.0873 H   0  0  0  0  0  0  0  0  0  0  0  0
    6.6279   -0.7469   16.9724 H   0  0  0  0  0  0  0  0  0  0  0  0
    4.5091    2.4455   11.2039 H   0  0  0  0  0  0  0  0  0  0  0  0
    3.6383    3.8688    9.3146 H   0  0  0  0  0  0  0  0  0  0  0  0
    1.1766    4.9563    8.2501 H   0  0  0  0  0  0  0  0  0  0  0  0
   -1.3758    3.3128   11.1877 H   0  0  0  0  0  0  0  0  0  0  0  0
    0.4509    1.9830   12.7371 H   0  0  0  0  0  0  0  0  0  0  0  0
   -2.2297   -0.4507   13.3327 H   0  0  0  0  0  0  0  0  0  0  0  0
    0.1393    0.0870   13.8770 H   0  0  0  0  0  0  0  0  0  0  0  0
    0.4098   -3.5033   16.2703 H   0  0  0  0  0  0  0  0  0  0  0  0
   -1.9583   -4.0439   15.7294 H   0  0  0  0  0  0  0  0  0  0  0  0
   -7.8786   -4.0380   14.7644 H   0  0  0  0  0  0  0  0  0  0  0  0
   -7.8939   -3.1386   13.2096 H   0  0  0  0  0  0  0  0  0  0  0  0
   -7.9640   -4.9335   13.2096 H   0  0  0  0  0  0  0  0  0  0  0  0
   -5.7746   -3.3879   11.6505 H   0  0  0  0  0  0  0  0  0  0  0  0
   -6.0443   -2.1032   12.8992 H   0  0  0  0  0  0  0  0  0  0  0  0
   -3.5108   -3.7300   12.4145 H   0  0  0  0  0  0  0  0  0  0  0  0
   -3.7639   -1.9493   12.1954 H   0  0  0  0  0  0  0  0  0  0  0  0
   -4.1377   -2.6548   16.2191 H   0  0  0  0  0  0  0  0  0  0  0  0
   -5.2846   -1.7582   15.1615 H   0  0  0  0  0  0  0  0  0  0  0  0
   -6.3390   -3.8334   15.7834 H   0  0  0  0  0  0  0  0  0  0  0  0
   -4.8375   -4.7623   15.3141 H   0  0  0  0  0  0  0  0  0  0  0  0
   -5.4743   -5.9605   13.9955 H   0  0  0  0  0  0  0  0  0  0  0  0
  1  2  1  0
  1 23  1  0
  2 10  1  0
  2  3  2  0
  3  4  1  0
  4  5  2  0
  4 11  1  0
  5  6  1  0
  6 10  1  0
  6  7  1  0
  7  8  2  0
  8  9  1  0
  9 10  2  0
 11 12  2  0
 11 19  1  0
 12 13  1  0
 13 14  2  0
 14 18  1  0
 14 15  1  0
 15 16  2  0
 16 17  1  0
 17 18  1  0
 18 19  2  0
 20 25  1  0
 20 21  2  0
 20 30  1  0
 21 22  1  0
 22 23  2  0
 23 24  1  0
 24 25  2  0
 26 27  1  0
 26 32  1  0
 26 28  1  0
 26 33  1  0
 28 29  1  0
 29 30  1  0
 30 31  1  0
 31 32  1  0
  1 34  1  0
  5 35  1  0
  7 36  1  0
  8 37  1  0
 12 38  1  0
 13 39  1  0
 15 40  1  0
 17 41  1  0
 19 42  1  0
 21 43  1  0
 22 44  1  0
 24 45  1  0
 25 46  1  0
 27 47  1  0
 27 48  1  0
 27 49  1  0
 28 50  1  0
 28 51  1  0
 29 52  1  0
 29 53  1  0
 31 54  1  0
 31 55  1  0
 32 56  1  0
 32 57  1  0
 33 58  1  0
M  END
>  <s_m_entry_id>  (1) 
377

>  <MODEL>  (1) 
1

>  <REMARK>  (1) 
 VINA RESULT:   -10.124      0.000      0.000
 INTER + INTRA:         -12.417
 INTER:                 -12.006
 INTRA:                  -0.410
 UNBOUND:                -0.221
  Name = /scratch/kmzp800/tmp8eee03_t/tmprwh2_cdy.pdb
  5 active torsions:
  status: ('A' for Active; 'I' for Inactive)
    1  A    between atoms: O1_1  and  C1_2
    2  A    between atoms: C1_2  and  C2_3
    3  A    between atoms: N1_6  and  C5_7
    4  A    between atoms: C8_10  and  N2_11
    5  A    between atoms: C10_14  and  C11_15
                            x       y       z     vdW  Elec       q    Type
                         _______ _______ _______ _____ _____    ______ ____

>  <TORSDO>  (1) 
F 4

>  <grid_id>  (1) 
syk-prepared

>  <grid_path>  (1) 
syk_vina.pdbqt

>  <grid_filename>  (1) 
syk_vina.pdbqt

>  <docking_score>  (1) 
-10.124

>  <compound_name>  (1) 
CHEMBL3265031

>  <index_string>  (1) 
7:0:0

>  <s_m_Source_Path>  (1) 
/projects/mai/users/kmzp800_harry/pmx_colab/docking_jobs/syk/vina_prep/output

>  <s_m_Source_File>  (1) 
ptp1b_docked_conformers.sdf

>  <i_m_Source_File_Index>  (1) 
201

$$$$
