4:0:0
     RDKit          3D

 45 47  0  0  1  0  0  0  0  0999 V2000
   32.5820   36.9050   26.1340 N   0  0  0  0  0  0  0  0  0  0  0  0
   32.8040   36.8880   24.7190 C   0  0  0  0  0  0  0  0  0  0  0  0
   33.0470   38.0410   24.0370 N   0  0  0  0  0  0  0  0  0  0  0  0
   33.2580   38.0330   22.6950 C   0  0  0  0  0  0  0  0  0  0  0  0
   33.2250   36.8290   21.9990 C   0  0  0  0  0  0  0  0  0  0  0  0
   33.4360   36.7840   20.6280 C   0  0  0  0  0  0  0  0  0  0  0  0
   33.3890   35.5580   19.9540 C   0  0  0  0  0  0  0  0  0  0  0  0
   33.1470   34.3870   20.6890 C   0  0  0  0  0  0  0  0  0  0  0  0
   33.1190   33.2770   20.0880 O   0  0  0  0  0  0  0  0  0  0  0  0
   32.9400   34.4430   22.0430 N   0  0  0  0  0  0  0  0  0  0  0  0
   32.6850   33.2120   22.7850 C   0  0  0  0  0  0  0  0  0  0  0  0
   32.9740   35.6410   22.7080 C   0  0  0  0  0  0  0  0  0  0  0  0
   32.7690   35.7030   24.0520 N   0  0  0  0  0  0  0  0  0  0  0  0
   32.5910   38.0990   26.9770 C   0  0  0  0  0  0  0  0  0  0  0  0
   33.9340   38.7850   26.8150 C   0  0  0  0  0  0  0  0  0  0  0  0
   32.4220   37.7030   28.4360 C   0  0  0  0  0  0  0  0  0  0  0  0
   31.4760   39.0490   26.5420 C   0  0  0  0  0  0  0  0  0  0  0  0
   31.9960   40.1930   25.9290 O   0  0  0  0  0  0  0  0  0  0  0  0
   33.6190   35.4730   18.5730 O   0  0  0  0  0  0  0  0  0  0  0  0
   34.8700   35.6010   17.9560 C   0  0  0  0  0  0  0  0  0  0  0  0
   35.9930   35.8170   18.7620 C   0  0  0  0  0  0  0  0  0  0  0  0
   37.2620   35.9430   18.1900 C   0  0  0  0  0  0  0  0  0  0  0  0
   37.4180   35.8420   16.8070 C   0  0  0  0  0  0  0  0  0  0  0  0
   38.6480   35.9640   16.2520 F   0  0  0  0  0  0  0  0  0  0  0  0
   36.3070   35.6000   15.9940 C   0  0  0  0  0  0  0  0  0  0  0  0
   35.0350   35.4750   16.5620 C   0  0  0  0  0  0  0  0  0  0  0  0
   33.9850   35.1790   15.7570 F   0  0  0  0  0  0  0  0  0  0  0  0
   32.4012   36.0019   26.5952 H   0  0  0  0  0  0  0  0  0  0  0  0
   33.4541   38.9745   22.1610 H   0  0  0  0  0  0  0  0  0  0  0  0
   33.6399   37.7107   20.0716 H   0  0  0  0  0  0  0  0  0  0  0  0
   32.7279   33.4190   23.8645 H   0  0  0  0  0  0  0  0  0  0  0  0
   31.6880   32.8269   22.5248 H   0  0  0  0  0  0  0  0  0  0  0  0
   33.4470   32.4625   22.5248 H   0  0  0  0  0  0  0  0  0  0  0  0
   34.3573   39.0012   27.8070 H   0  0  0  0  0  0  0  0  0  0  0  0
   34.6179   38.1258   26.2603 H   0  0  0  0  0  0  0  0  0  0  0  0
   33.8008   39.7255   26.2603 H   0  0  0  0  0  0  0  0  0  0  0  0
   32.7717   38.5224   29.0812 H   0  0  0  0  0  0  0  0  0  0  0  0
   31.3600   37.5027   28.6409 H   0  0  0  0  0  0  0  0  0  0  0  0
   33.0121   36.7976   28.6409 H   0  0  0  0  0  0  0  0  0  0  0  0
   30.8184   38.5282   25.8304 H   0  0  0  0  0  0  0  0  0  0  0  0
   30.9138   39.3580   27.4355 H   0  0  0  0  0  0  0  0  0  0  0  0
   32.2881   40.8355   26.6232 H   0  0  0  0  0  0  0  0  0  0  0  0
   35.8764   35.8882   19.8535 H   0  0  0  0  0  0  0  0  0  0  0  0
   38.1383   36.1219   18.8304 H   0  0  0  0  0  0  0  0  0  0  0  0
   36.4334   35.5077   14.9052 H   0  0  0  0  0  0  0  0  0  0  0  0
  1 14  1  0
  1  2  1  0
  2  3  2  0
  2 13  1  0
  3  4  1  0
  4  5  2  0
  5 12  1  0
  5  6  1  0
  6  7  2  0
  7  8  1  0
  7 19  1  0
  8 10  1  0
  8  9  2  0
 10 12  1  0
 10 11  1  0
 12 13  2  0
 14 16  1  0
 14 15  1  0
 14 17  1  0
 17 18  1  0
 19 20  1  0
 20 21  2  0
 20 26  1  0
 21 22  1  0
 22 23  2  0
 23 24  1  0
 23 25  1  0
 25 26  2  0
 26 27  1  0
  1 28  1  0
  4 29  1  0
  6 30  1  0
 11 31  1  0
 11 32  1  0
 11 33  1  0
 15 34  1  0
 15 35  1  0
 15 36  1  0
 16 37  1  0
 16 38  1  0
 16 39  1  0
 17 40  1  0
 17 41  1  0
 18 42  1  0
 21 43  1  0
 22 44  1  0
 25 45  1  0
M  END
>  <s_m_entry_id>  (1) 
53

>  <MODEL>  (1) 
2

>  <REMARK>  (1) 
 VINA RESULT:    -7.960      2.177      2.856
 INTER + INTRA:          -9.709
 INTER:                  -9.645
 INTRA:                  -0.064
 UNBOUND:                 0.345
  Name = /scratch/kmzp800/tmpx7ad5p7n/tmp328e6ef2.pdb
  8 active torsions:
  status: ('A' for Active; 'I' for Inactive)
    1  A    between atoms: O1_1  and  C1_2
    2  A    between atoms: C1_2  and  C2_3
    3  A    between atoms: C2_3  and  N1_4
    4  A    between atoms: C2_3  and  C17_26
    5  A    between atoms: C2_3  and  C18_27
    6  A    between atoms: C7_10  and  O2_11
    7  A    between atoms: O2_11  and  C8_12
    8  A    between atoms: N3_22  and  C15_23
                            x       y       z     vdW  Elec       q    Type
                         _______ _______ _______ _____ _____    ______ ____

>  <TORSDO>  (1) 
F 5

>  <grid_id>  (1) 
p38-prepared

>  <grid_path>  (1) 
/projects/mai/users/kmzp800_harry/pmx_colab/docking_jobs/p38/vina_docking/input_files/p38_vina.pdbqt

>  <grid_filename>  (1) 
p38_vina.pdbqt

>  <docking_score>  (1) 
-7.96

>  <compound_name>  (1) 
lig_p38a_2z

>  <index_string>  (1) 
4:0:0

$$$$
