3:0:0
     RDKit          3D

 46 49  0  0  1  0  0  0  0  0999 V2000
  -14.4136  -14.7858  -27.6938 C   0  0  0  0  0  0  0  0  0  0  0  0
  -15.0205  -15.6112  -26.7150 C   0  0  0  0  0  0  0  0  0  0  0  0
  -14.4902  -13.4036  -27.6233 C   0  0  0  0  0  0  0  0  0  0  0  0
  -15.7602  -15.0064  -25.6718 C   0  0  0  0  0  0  0  0  0  0  0  0
  -14.8481  -17.0077  -26.7541 N   0  0  0  0  0  0  0  0  0  0  0  0
  -15.2473  -12.8079  -26.6309 C   0  0  0  0  0  0  0  0  0  0  0  0
  -15.8918  -13.5892  -25.6348 C   0  0  0  0  0  0  0  0  0  0  0  0
  -16.3771  -15.9350  -24.6539 C   0  0  0  0  0  0  0  0  0  0  0  0
  -16.1142  -17.2376  -24.8111 N   0  0  0  0  0  0  0  0  0  0  0  0
  -17.0876  -15.5727  -23.7304 O   0  0  0  0  0  0  0  0  0  0  0  0
  -15.3606  -17.7819  -25.8437 C   0  0  0  0  0  0  0  0  0  0  0  0
  -15.1976  -19.2597  -25.9283 C   0  0  0  0  0  0  0  0  0  0  0  0
  -14.7808  -19.8387  -27.1383 C   0  0  0  0  0  0  0  0  0  0  0  0
  -14.5667  -21.2154  -27.2217 C   0  0  0  0  0  0  0  0  0  0  0  0
  -14.7779  -22.0572  -26.1125 C   0  0  0  0  0  0  0  0  0  0  0  0
  -15.2338  -21.4871  -24.9063 C   0  0  0  0  0  0  0  0  0  0  0  0
  -15.4423  -20.0961  -24.8173 C   0  0  0  0  0  0  0  0  0  0  0  0
  -13.6276  -15.3105  -28.8449 C   0  0  0  0  0  0  0  0  0  0  0  0
  -15.3464  -11.4737  -26.7386 F   0  0  0  0  0  0  0  0  0  0  0  0
  -14.5089  -23.5501  -26.2177 C   0  0  0  0  0  0  0  0  0  0  0  0
  -15.5158  -24.2355  -27.1617 C   0  0  0  0  0  0  0  0  0  0  0  0
  -15.2036  -25.7292  -27.3369 C   0  0  0  0  0  0  0  0  0  0  0  0
  -13.8110  -25.9276  -27.7987 N   0  0  0  0  0  0  0  0  0  0  0  0
  -12.8043  -25.3392  -26.8874 C   0  0  0  0  0  0  0  0  0  0  0  0
  -13.0620  -23.8389  -26.6743 C   0  0  0  0  0  0  0  0  0  0  0  0
  -14.0127  -12.7840  -28.3701 H   0  0  0  0  0  0  0  0  0  0  0  0
  -16.4779  -13.1112  -24.8621 H   0  0  0  0  0  0  0  0  0  0  0  0
  -16.5639  -17.8685  -24.1590 H   0  0  0  0  0  0  0  0  0  0  0  0
  -14.5864  -19.2330  -28.0117 H   0  0  0  0  0  0  0  0  0  0  0  0
  -14.2084  -21.5727  -28.1661 H   0  0  0  0  0  0  0  0  0  0  0  0
  -15.4100  -22.1066  -24.0394 H   0  0  0  0  0  0  0  0  0  0  0  0
  -15.7678  -19.6840  -23.8734 H   0  0  0  0  0  0  0  0  0  0  0  0
  -13.6482  -16.3728  -28.7753 H   0  0  0  0  0  0  0  0  0  0  0  0
  -14.0482  -14.9855  -29.7934 H   0  0  0  0  0  0  0  0  0  0  0  0
  -12.5920  -14.9912  -28.8218 H   0  0  0  0  0  0  0  0  0  0  0  0
  -14.6355  -23.9739  -25.2204 H   0  0  0  0  0  0  0  0  0  0  0  0
  -16.5293  -24.1118  -26.7770 H   0  0  0  0  0  0  0  0  0  0  0  0
  -15.4990  -23.7554  -28.1391 H   0  0  0  0  0  0  0  0  0  0  0  0
  -15.3595  -26.2563  -26.3967 H   0  0  0  0  0  0  0  0  0  0  0  0
  -15.8866  -26.1741  -28.0612 H   0  0  0  0  0  0  0  0  0  0  0  0
  -13.6306  -26.9184  -27.8867 H   0  0  0  0  0  0  0  0  0  0  0  0
  -12.8227  -25.8695  -25.9386 H   0  0  0  0  0  0  0  0  0  0  0  0
  -11.8087  -25.4904  -27.3067 H   0  0  0  0  0  0  0  0  0  0  0  0
  -12.8479  -23.3200  -27.6075 H   0  0  0  0  0  0  0  0  0  0  0  0
  -12.3603  -23.4441  -25.9385 H   0  0  0  0  0  0  0  0  0  0  0  0
  -13.7092  -25.5015  -28.7087 H   0  0  0  0  0  0  0  0  0  0  0  0
  1  2  2  0
  1  3  1  0
  1 18  1  0
  2  4  1  0
  2  5  1  0
  3  6  2  0
  3 26  1  0
  4  7  2  0
  4  8  1  0
  5 11  2  0
  6  7  1  0
  6 19  1  0
  7 27  1  0
  8  9  1  0
  8 10  2  0
  9 11  1  0
  9 28  1  0
 11 12  1  0
 12 13  2  0
 12 17  1  0
 13 14  1  0
 13 29  1  0
 14 15  2  0
 14 30  1  0
 15 16  1  0
 15 20  1  0
 16 17  2  0
 16 31  1  0
 17 32  1  0
 18 33  1  0
 18 34  1  0
 18 35  1  0
 20 21  1  0
 20 25  1  0
 20 36  1  0
 21 22  1  0
 21 37  1  0
 21 38  1  0
 22 23  1  0
 22 39  1  0
 22 40  1  0
 23 24  1  0
 23 41  1  0
 23 46  1  0
 24 25  1  0
 24 42  1  0
 24 43  1  0
 25 44  1  0
 25 45  1  0
M  CHG  1  23   1
M  END
>  <s_m_entry_id>  (1) 
445

>  <Name>  (1) 
8d

>  <IC50[nM]>  (1) 
0.7

>  <s_m_Source_Path>  (1) 
/projects/mai/users/kmzp800_harry/pmx_colab/docking_jobs/tnks2

>  <s_m_Source_File>  (1) 
tnks2_lig.sdf

>  <i_m_Source_File_Index>  (1) 
4

>  <s_m_job_name>  (1) 
glide-dock_SP_tnks2_core_const

>  <r_i_docking_score>  (1) 
-10.2728351022244

>  <r_i_glide_gscore>  (1) 
-10.2728351022244

>  <r_i_glide_emodel>  (1) 
-36.3164797435312

>  <index_string>  (1) 
3:0:0

$$$$
