14:0:0
     RDKit          3D

 46 49  0  0  1  0  0  0  0  0999 V2000
   34.0220   36.2060   20.3480 C   0  0  0  0  0  0  0  0  0  0  0  0
   34.1150   37.5820   20.5460 C   0  0  0  0  0  0  0  0  0  0  0  0
   34.1030   38.0990   21.8370 C   0  0  0  0  0  0  0  0  0  0  0  0
   34.1820   39.4690   22.0660 C   0  0  0  0  0  0  0  0  0  0  0  0
   34.1630   39.9410   23.3400 N   0  0  0  0  0  0  0  0  0  0  0  0
   34.0650   39.0970   24.4000 C   0  0  0  0  0  0  0  0  0  0  0  0
   34.0490   39.6310   25.7260 N   0  0  0  0  0  0  0  0  0  0  0  0
   33.9890   37.7530   24.1940 N   0  0  0  0  0  0  0  0  0  0  0  0
   34.0040   37.2290   22.9370 C   0  0  0  0  0  0  0  0  0  0  0  0
   33.9350   35.8770   22.7370 N   0  0  0  0  0  0  0  0  0  0  0  0
   33.8500   34.9800   23.8860 C   0  0  0  0  0  0  0  0  0  0  0  0
   33.9560   35.3530   21.4700 C   0  0  0  0  0  0  0  0  0  0  0  0
   33.9440   34.1020   21.3040 O   0  0  0  0  0  0  0  0  0  0  0  0
   33.9210   38.7950   26.9100 C   0  0  0  0  0  0  0  0  0  0  0  0
   35.3050   38.5110   27.4980 C   0  0  0  0  0  0  0  0  0  0  0  0
   35.2160   38.0140   28.9480 C   0  0  0  0  0  0  0  0  0  0  0  0
   33.9000   37.6490   29.2860 O   0  0  0  0  0  0  0  0  0  0  0  0
   33.1650   38.8470   29.3360 C   0  0  0  0  0  0  0  0  0  0  0  0
   32.9930   39.4600   27.9360 C   0  0  0  0  0  0  0  0  0  0  0  0
   34.0420   35.7180   19.0340 O   0  0  0  0  0  0  0  0  0  0  0  0
   37.5670   35.9420   17.9470 C   0  0  0  0  0  0  0  0  0  0  0  0
   36.4300   35.9040   18.7580 C   0  0  0  0  0  0  0  0  0  0  0  0
   35.1620   35.7310   18.1920 C   0  0  0  0  0  0  0  0  0  0  0  0
   35.0420   35.6100   16.7970 C   0  0  0  0  0  0  0  0  0  0  0  0
   36.1790   35.6480   15.9850 C   0  0  0  0  0  0  0  0  0  0  0  0
   37.4430   35.8120   16.5600 C   0  0  0  0  0  0  0  0  0  0  0  0
   38.5450   35.8480   15.7750 F   0  0  0  0  0  0  0  0  0  0  0  0
   34.1978   38.2584   19.6825 H   0  0  0  0  0  0  0  0  0  0  0  0
   34.2595   40.1670   21.2194 H   0  0  0  0  0  0  0  0  0  0  0  0
   34.1315   40.6504   25.8484 H   0  0  0  0  0  0  0  0  0  0  0  0
   33.9056   35.5672   24.8145 H   0  0  0  0  0  0  0  0  0  0  0  0
   32.8960   34.4332   23.8546 H   0  0  0  0  0  0  0  0  0  0  0  0
   34.6843   34.2638   23.8546 H   0  0  0  0  0  0  0  0  0  0  0  0
   33.4672   37.8328   26.6304 H   0  0  0  0  0  0  0  0  0  0  0  0
   35.8005   37.7418   26.8875 H   0  0  0  0  0  0  0  0  0  0  0  0
   35.8787   39.4495   27.4923 H   0  0  0  0  0  0  0  0  0  0  0  0
   35.8719   37.1390   29.0672 H   0  0  0  0  0  0  0  0  0  0  0  0
   35.5303   38.8312   29.6138 H   0  0  0  0  0  0  0  0  0  0  0  0
   32.1715   38.6397   29.7602 H   0  0  0  0  0  0  0  0  0  0  0  0
   33.7155   39.5644   29.9623 H   0  0  0  0  0  0  0  0  0  0  0  0
   33.2266   40.5338   27.9853 H   0  0  0  0  0  0  0  0  0  0  0  0
   31.9533   39.2984   27.6151 H   0  0  0  0  0  0  0  0  0  0  0  0
   38.5607   36.0743   18.3998 H   0  0  0  0  0  0  0  0  0  0  0  0
   36.5322   36.0107   19.8480 H   0  0  0  0  0  0  0  0  0  0  0  0
   34.0484   35.4848   16.3419 H   0  0  0  0  0  0  0  0  0  0  0  0
   36.0795   35.5489   14.8940 H   0  0  0  0  0  0  0  0  0  0  0  0
  1  2  2  0
  1 12  1  0
  1 20  1  0
  2  3  1  0
  3  4  2  0
  3  9  1  0
  4  5  1  0
  5  6  2  0
  6  7  1  0
  6  8  1  0
  7 14  1  0
  8  9  2  0
  9 10  1  0
 10 11  1  0
 10 12  1  0
 12 13  2  0
 14 15  1  0
 14 19  1  0
 15 16  1  0
 16 17  1  0
 17 18  1  0
 18 19  1  0
 20 23  1  0
 21 22  2  0
 21 26  1  0
 22 23  1  0
 23 24  2  0
 24 25  1  0
 25 26  2  0
 26 27  1  0
  2 28  1  0
  4 29  1  0
  7 30  1  0
 11 31  1  0
 11 32  1  0
 11 33  1  0
 14 34  1  0
 15 35  1  0
 15 36  1  0
 16 37  1  0
 16 38  1  0
 18 39  1  0
 18 40  1  0
 19 41  1  0
 19 42  1  0
 21 43  1  0
 22 44  1  0
 24 45  1  0
 25 46  1  0
M  END
>  <s_m_entry_id>  (1) 
64

>  <MODEL>  (1) 
2

>  <REMARK>  (1) 
 VINA RESULT:    -9.493      1.220      1.702
 INTER + INTRA:         -10.300
 INTER:                  -9.744
 INTRA:                  -0.556
 UNBOUND:                 0.858
  Name = /scratch/kmzp800/tmpa2xyrw8c/tmpvlnjp_p9.pdb
  4 active torsions:
  status: ('A' for Active; 'I' for Inactive)
    1  A    between atoms: C3_3  and  O1_4
    2  A    between atoms: O1_4  and  C4_5
    3  A    between atoms: N2_11  and  C9_12
    4  A    between atoms: N4_20  and  C15_21
                            x       y       z     vdW  Elec       q    Type
                         _______ _______ _______ _____ _____    ______ ____

>  <TORSDO>  (1) 
F 3

>  <grid_id>  (1) 
p38-prepared

>  <grid_path>  (1) 
/projects/mai/users/kmzp800_harry/pmx_colab/docking_jobs/p38/vina_docking/input_files/p38_vina.pdbqt

>  <grid_filename>  (1) 
p38_vina.pdbqt

>  <docking_score>  (1) 
-9.493

>  <compound_name>  (1) 
lig_p38a_2e

>  <index_string>  (1) 
14:0:0

$$$$
