15:0:0
     RDKit          3D

 46 49  0  0  1  0  0  0  0  0999 V2000
   32.7446   34.6889   14.3814 F   0  0  0  0  0  0  0  0  0  0  0  0
   33.4623   34.9112   15.5075 C   0  0  0  0  0  0  0  0  0  0  0  0
   34.8614   34.9121   15.4891 C   0  0  0  0  0  0  0  0  0  0  0  0
   35.6076   35.1493   16.6496 C   0  0  0  0  0  0  0  0  0  0  0  0
   36.9582   35.1989   16.5717 F   0  0  0  0  0  0  0  0  0  0  0  0
   34.9490   35.2340   17.8910 C   0  0  0  0  0  0  0  0  0  0  0  0
   33.5367   35.2377   17.9169 C   0  0  0  0  0  0  0  0  0  0  0  0
   32.8148   35.1493   16.7177 C   0  0  0  0  0  0  0  0  0  0  0  0
   35.7032   35.2358   19.0345 O   0  0  0  0  0  0  0  0  0  0  0  0
   35.1763   35.8284   20.1410 C   0  0  0  0  0  0  0  0  0  0  0  0
   35.2687   37.1623   20.2633 C   0  0  0  0  0  0  0  0  0  0  0  0
   34.5520   34.9965   21.1724 C   0  0  0  0  0  0  0  0  0  0  0  0
   34.3266   33.8044   20.9703 O   0  0  0  0  0  0  0  0  0  0  0  0
   34.2131   35.6196   22.3389 N   0  0  0  0  0  0  0  0  0  0  0  0
   33.6691   34.8185   23.4471 C   0  0  0  0  0  0  0  0  0  0  0  0
   34.3021   37.0403   22.5259 C   0  0  0  0  0  0  0  0  0  0  0  0
   34.8091   37.8282   21.4723 C   0  0  0  0  0  0  0  0  0  0  0  0
   33.9236   37.6395   23.6754 N   0  0  0  0  0  0  0  0  0  0  0  0
   34.0462   38.9621   23.7750 C   0  0  0  0  0  0  0  0  0  0  0  0
   34.4817   39.7909   22.8294 N   0  0  0  0  0  0  0  0  0  0  0  0
   34.8628   39.2214   21.6669 C   0  0  0  0  0  0  0  0  0  0  0  0
   33.7216   39.5493   24.9785 N   0  0  0  0  0  0  0  0  0  0  0  0
   33.3528   38.8339   26.1917 C   0  0  0  0  0  0  0  0  0  0  0  0
   34.5933   38.2174   26.8688 C   0  0  0  0  0  0  0  0  0  0  0  0
   32.5749   39.7735   27.1318 C   0  0  0  0  0  0  0  0  0  0  0  0
   32.0153   39.0667   28.2661 N   0  0  0  0  0  0  0  0  0  0  0  0
   30.9521   38.2507   28.1514 N   0  0  0  0  0  0  0  0  0  0  0  0
   30.8224   37.8724   29.4115 C   0  0  0  0  0  0  0  0  0  0  0  0
   31.7514   38.4148   30.2515 N   0  0  0  0  0  0  0  0  0  0  0  0
   32.5024   39.1727   29.5187 N   0  0  0  0  0  0  0  0  0  0  0  0
   32.6799   38.0238   25.9055 H   0  0  0  0  0  0  0  0  0  0  0  0
   35.3521   34.7361   14.5583 H   0  0  0  0  0  0  0  0  0  0  0  0
   32.9798   35.3033   18.8394 H   0  0  0  0  0  0  0  0  0  0  0  0
   31.7382   35.1502   16.7530 H   0  0  0  0  0  0  0  0  0  0  0  0
   35.7376   37.7603   19.4944 H   0  0  0  0  0  0  0  0  0  0  0  0
   33.9045   33.7549   23.3818 H   0  0  0  0  0  0  0  0  0  0  0  0
   34.0678   35.1531   24.4055 H   0  0  0  0  0  0  0  0  0  0  0  0
   32.5840   34.9208   23.4806 H   0  0  0  0  0  0  0  0  0  0  0  0
   35.2373   39.8808   20.8994 H   0  0  0  0  0  0  0  0  0  0  0  0
   33.8436   40.5526   25.0532 H   0  0  0  0  0  0  0  0  0  0  0  0
   34.3199   37.6328   27.7474 H   0  0  0  0  0  0  0  0  0  0  0  0
   35.1245   37.5449   26.1946 H   0  0  0  0  0  0  0  0  0  0  0  0
   35.2948   38.9888   27.1874 H   0  0  0  0  0  0  0  0  0  0  0  0
   31.7518   40.2495   26.5967 H   0  0  0  0  0  0  0  0  0  0  0  0
   33.2153   40.5795   27.4935 H   0  0  0  0  0  0  0  0  0  0  0  0
   30.0433   37.1974   29.7350 H   0  0  0  0  0  0  0  0  0  0  0  0
  1  2  1  0
  2  8  2  0
  2  3  1  0
  3  4  2  0
  3 32  1  0
  4  5  1  0
  4  6  1  0
  6  7  2  0
  6  9  1  0
  7  8  1  0
  7 33  1  0
  8 34  1  0
  9 10  1  0
 10 11  2  0
 10 12  1  0
 11 17  1  0
 11 35  1  0
 12 13  2  0
 12 14  1  0
 14 15  1  0
 14 16  1  0
 15 36  1  0
 15 37  1  0
 15 38  1  0
 16 17  2  0
 16 18  1  0
 17 21  1  0
 18 19  2  0
 19 20  1  0
 19 22  1  0
 20 21  2  0
 21 39  1  0
 22 23  1  0
 22 40  1  0
 23 31  1  0
 23 24  1  0
 23 25  1  0
 24 41  1  0
 24 42  1  0
 24 43  1  0
 25 26  1  0
 25 44  1  0
 25 45  1  0
 26 30  1  0
 26 27  1  0
 27 28  2  0
 28 29  1  0
 28 46  1  0
 29 30  2  0
M  END
>  <s_m_entry_id>  (1) 
276

>  <i_f3d_flags>  (1) 
0

>  <r_lp_tautomer_probability>  (1) 
1

>  <r_epik_Ionization_Penalty>  (1) 
  0.0000

>  <r_epik_State_Penalty>  (1) 
  0.0000

>  <i_epik_Tot_Q>  (1) 
0

>  <s_m_job_name>  (1) 
glide-dock_SP_p38_core_cons_top_1

>  <r_i_docking_score>  (1) 
-6.43956157047293

>  <r_i_glide_gscore>  (1) 
-6.43956157047293

>  <r_i_glide_emodel>  (1) 
-50.3539223057349

>  <index_string>  (1) 
15:0:0

$$$$
