36:0:0
     RDKit          3D

 53 58  0  0  1  0  0  0  0  0999 V2000
    5.8300   -0.4550   16.2750 C   0  0  0  0  0  0  0  0  0  0  0  0
    4.5680   -0.9530   16.2450 N   0  0  0  0  0  0  0  0  0  0  0  0
    3.9770   -0.2570   15.2590 C   0  0  0  0  0  0  0  0  0  0  0  0
    2.6630   -0.3860   14.8190 C   0  0  0  0  0  0  0  0  0  0  0  0
    1.7790   -1.3390   15.4290 N   0  0  0  0  0  0  0  0  0  0  0  0
    2.2550    0.4230   13.7960 N   0  0  0  0  0  0  0  0  0  0  0  0
    3.0910    1.3350   13.2080 C   0  0  0  0  0  0  0  0  0  0  0  0
    4.4170    1.4450   13.6720 C   0  0  0  0  0  0  0  0  0  0  0  0
    4.7940    0.6320   14.6880 N   0  0  0  0  0  0  0  0  0  0  0  0
    5.9780    0.5340   15.3060 C   0  0  0  0  0  0  0  0  0  0  0  0
    2.5980    2.1860   12.1040 C   0  0  0  0  0  0  0  0  0  0  0  0
    3.5170    2.7360   11.1740 C   0  0  0  0  0  0  0  0  0  0  0  0
    3.0780    3.5500   10.1120 C   0  0  0  0  0  0  0  0  0  0  0  0
    1.7130    3.7880   10.0190 C   0  0  0  0  0  0  0  0  0  0  0  0
    0.9760    4.5240    9.1200 C   0  0  0  0  0  0  0  0  0  0  0  0
   -0.3230    4.4150    9.4990 N   0  0  0  0  0  0  0  0  0  0  0  0
   -0.4230    3.6520   10.5840 N   0  0  0  0  0  0  0  0  0  0  0  0
    0.8200    3.2670   10.9050 C   0  0  0  0  0  0  0  0  0  0  0  0
    1.2180    2.4590   11.9650 C   0  0  0  0  0  0  0  0  0  0  0  0
    0.4080   -1.5880   15.0900 C   0  0  0  0  0  0  0  0  0  0  0  0
   -0.1760   -2.7930   15.4950 C   0  0  0  0  0  0  0  0  0  0  0  0
   -1.5090   -3.0740   15.1850 C   0  0  0  0  0  0  0  0  0  0  0  0
   -2.2740   -2.1510   14.4650 C   0  0  0  0  0  0  0  0  0  0  0  0
   -1.6950   -0.9410   14.0570 C   0  0  0  0  0  0  0  0  0  0  0  0
   -0.3610   -0.6620   14.3680 C   0  0  0  0  0  0  0  0  0  0  0  0
   -3.6990   -2.4750   14.1450 C   0  0  0  0  0  0  0  0  0  0  0  0
   -3.8120   -3.8190   13.4240 C   0  0  0  0  0  0  0  0  0  0  0  0
   -5.2900   -4.1810   13.2770 C   0  0  0  0  0  0  0  0  0  0  0  0
   -5.8900   -4.2690   14.5470 O   0  0  0  0  0  0  0  0  0  0  0  0
   -5.9680   -2.9560   15.0500 C   0  0  0  0  0  0  0  0  0  0  0  0
   -4.5700   -2.4500   15.4030 C   0  0  0  0  0  0  0  0  0  0  0  0
    6.6211   -0.7847   16.9646 H   0  0  0  0  0  0  0  0  0  0  0  0
    2.1726   -1.9058   16.1937 H   0  0  0  0  0  0  0  0  0  0  0  0
    5.1197    2.1641   13.2259 H   0  0  0  0  0  0  0  0  0  0  0  0
    6.8853    1.1176   15.0913 H   0  0  0  0  0  0  0  0  0  0  0  0
    4.5906    2.5231   11.2842 H   0  0  0  0  0  0  0  0  0  0  0  0
    3.7858    3.9788    9.3874 H   0  0  0  0  0  0  0  0  0  0  0  0
    1.3641    5.0908    8.2608 H   0  0  0  0  0  0  0  0  0  0  0  0
   -1.2899    3.4044   11.0822 H   0  0  0  0  0  0  0  0  0  0  0  0
    0.4831    2.0461   12.6718 H   0  0  0  0  0  0  0  0  0  0  0  0
    0.4187   -3.5246   16.0617 H   0  0  0  0  0  0  0  0  0  0  0  0
   -1.9583   -4.0245   15.5084 H   0  0  0  0  0  0  0  0  0  0  0  0
   -2.2914   -0.2101   13.4913 H   0  0  0  0  0  0  0  0  0  0  0  0
    0.0886    0.2886   14.0451 H   0  0  0  0  0  0  0  0  0  0  0  0
   -4.0723   -1.6959   13.4641 H   0  0  0  0  0  0  0  0  0  0  0  0
   -3.3498   -3.7438   12.4287 H   0  0  0  0  0  0  0  0  0  0  0  0
   -3.2942   -4.5971   14.0041 H   0  0  0  0  0  0  0  0  0  0  0  0
   -5.7986   -3.4049   12.6863 H   0  0  0  0  0  0  0  0  0  0  0  0
   -5.3762   -5.1521   12.7676 H   0  0  0  0  0  0  0  0  0  0  0  0
   -6.4118   -2.2991   14.2874 H   0  0  0  0  0  0  0  0  0  0  0  0
   -6.5937   -2.9515   15.9547 H   0  0  0  0  0  0  0  0  0  0  0  0
   -4.1260   -3.0993   16.1720 H   0  0  0  0  0  0  0  0  0  0  0  0
   -4.6335   -1.4226   15.7908 H   0  0  0  0  0  0  0  0  0  0  0  0
  1  2  1  0
  1 10  2  0
  2  3  2  0
  3  4  1  0
  3  9  1  0
  4  5  1  0
  4  6  2  0
  5 20  1  0
  6  7  1  0
  7  8  2  0
  7 11  1  0
  8  9  1  0
  9 10  1  0
 11 12  2  0
 11 19  1  0
 12 13  1  0
 13 14  2  0
 14 18  1  0
 14 15  1  0
 15 16  2  0
 16 17  1  0
 17 18  1  0
 18 19  2  0
 20 21  2  0
 20 25  1  0
 21 22  1  0
 22 23  2  0
 23 24  1  0
 23 26  1  0
 24 25  2  0
 26 31  1  0
 26 27  1  0
 27 28  1  0
 28 29  1  0
 29 30  1  0
 30 31  1  0
  1 32  1  0
  5 33  1  0
  8 34  1  0
 10 35  1  0
 12 36  1  0
 13 37  1  0
 15 38  1  0
 17 39  1  0
 19 40  1  0
 21 41  1  0
 22 42  1  0
 24 43  1  0
 25 44  1  0
 26 45  1  0
 27 46  1  0
 27 47  1  0
 28 48  1  0
 28 49  1  0
 30 50  1  0
 30 51  1  0
 31 52  1  0
 31 53  1  0
M  END
>  <s_m_entry_id>  (1) 
37

>  <MODEL>  (1) 
1

>  <REMARK>  (1) 
 VINA RESULT:    -9.944      0.000      0.000
 INTER + INTRA:         -12.096
 INTER:                 -11.688
 INTRA:                  -0.408
 UNBOUND:                -0.408
  Name = /scratch/kmzp800/tmpm4fmp0ot/tmp86nlwb7w.pdb
  3 active torsions:
  status: ('A' for Active; 'I' for Inactive)
    1  A    between atoms: N2_5  and  C4_6
    2  A    between atoms: C7_9  and  C8_10
    3  A    between atoms: C15_19  and  C16_20
                            x       y       z     vdW  Elec       q    Type
                         _______ _______ _______ _____ _____    ______ ____

>  <TORSDO>  (1) 
F 3

>  <grid_id>  (1) 
syk-prepared

>  <grid_path>  (1) 
syk_vina.pdbqt

>  <grid_filename>  (1) 
syk_vina.pdbqt

>  <docking_score>  (1) 
-9.944

>  <compound_name>  (1) 
CHEMBL3265034

>  <index_string>  (1) 
36:0:0

>  <s_m_Source_Path>  (1) 
/projects/mai/users/kmzp800_harry/pmx_colab/docking_jobs/syk/vina_prep/output

>  <s_m_Source_File>  (1) 
ptp1b_docked_conformers.sdf

>  <i_m_Source_File_Index>  (1) 
37

$$$$
