24:0:0
     RDKit          3D

 35 37  0  0  1  0  0  0  0  0999 V2000
   35.2890   36.1130   21.6990 C   0  0  0  0  0  0  0  0  0  0  0  0
   35.1860   37.5020   21.8390 C   0  0  0  0  0  0  0  0  0  0  0  0
   34.4620   38.0440   22.8930 C   0  0  0  0  0  0  0  0  0  0  0  0
   34.3480   39.4210   23.0590 C   0  0  0  0  0  0  0  0  0  0  0  0
   33.6320   39.9180   24.1000 N   0  0  0  0  0  0  0  0  0  0  0  0
   33.0220   39.0910   24.9900 C   0  0  0  0  0  0  0  0  0  0  0  0
   32.2780   39.6500   26.0730 N   0  0  0  0  0  0  0  0  0  0  0  0
   31.6030   38.8190   27.0570 C   0  0  0  0  0  0  0  0  0  0  0  0
   33.1220   37.7410   24.8430 N   0  0  0  0  0  0  0  0  0  0  0  0
   33.8290   37.1930   23.8140 C   0  0  0  0  0  0  0  0  0  0  0  0
   33.9260   35.8360   23.6690 N   0  0  0  0  0  0  0  0  0  0  0  0
   33.2610   34.9570   24.6290 C   0  0  0  0  0  0  0  0  0  0  0  0
   34.6370   35.2900   22.6320 C   0  0  0  0  0  0  0  0  0  0  0  0
   34.7160   34.0360   22.5060 O   0  0  0  0  0  0  0  0  0  0  0  0
   35.9940   35.5150   20.6390 O   0  0  0  0  0  0  0  0  0  0  0  0
   33.9900   35.1420   17.5110 C   0  0  0  0  0  0  0  0  0  0  0  0
   34.3230   35.1440   18.8680 C   0  0  0  0  0  0  0  0  0  0  0  0
   35.6210   35.4820   19.2840 C   0  0  0  0  0  0  0  0  0  0  0  0
   36.5770   35.8300   18.3170 C   0  0  0  0  0  0  0  0  0  0  0  0
   37.8340   36.1710   18.6930 F   0  0  0  0  0  0  0  0  0  0  0  0
   36.2430   35.8260   16.9600 C   0  0  0  0  0  0  0  0  0  0  0  0
   34.9510   35.4810   16.5560 C   0  0  0  0  0  0  0  0  0  0  0  0
   34.6300   35.4770   15.2400 F   0  0  0  0  0  0  0  0  0  0  0  0
   35.6792   38.1652   21.1131 H   0  0  0  0  0  0  0  0  0  0  0  0
   34.8365   40.1046   22.3490 H   0  0  0  0  0  0  0  0  0  0  0  0
   32.2175   40.6745   26.1600 H   0  0  0  0  0  0  0  0  0  0  0  0
   31.8753   39.1542   28.0687 H   0  0  0  0  0  0  0  0  0  0  0  0
   30.5144   38.9034   26.9233 H   0  0  0  0  0  0  0  0  0  0  0  0
   31.9087   37.7708   26.9233 H   0  0  0  0  0  0  0  0  0  0  0  0
   33.5051   35.2797   25.6519 H   0  0  0  0  0  0  0  0  0  0  0  0
   32.1724   35.0068   24.4788 H   0  0  0  0  0  0  0  0  0  0  0  0
   33.6050   33.9230   24.4788 H   0  0  0  0  0  0  0  0  0  0  0  0
   32.9712   34.8735   17.1950 H   0  0  0  0  0  0  0  0  0  0  0  0
   33.5621   34.8786   19.6167 H   0  0  0  0  0  0  0  0  0  0  0  0
   36.9994   36.0952   16.2081 H   0  0  0  0  0  0  0  0  0  0  0  0
  1  2  2  0
  1 13  1  0
  1 15  1  0
  2  3  1  0
  3  4  2  0
  3 10  1  0
  4  5  1  0
  5  6  2  0
  6  7  1  0
  6  9  1  0
  7  8  1  0
  9 10  2  0
 10 11  1  0
 11 12  1  0
 11 13  1  0
 13 14  2  0
 15 18  1  0
 16 17  2  0
 16 22  1  0
 17 18  1  0
 18 19  2  0
 19 20  1  0
 19 21  1  0
 21 22  2  0
 22 23  1  0
  2 24  1  0
  4 25  1  0
  7 26  1  0
  8 27  1  0
  8 28  1  0
  8 29  1  0
 12 30  1  0
 12 31  1  0
 12 32  1  0
 16 33  1  0
 17 34  1  0
 21 35  1  0
M  END
>  <s_m_entry_id>  (1) 
74

>  <MODEL>  (1) 
3

>  <REMARK>  (1) 
 VINA RESULT:    -7.660      1.518      2.170
 INTER + INTRA:          -8.783
 INTER:                  -8.265
 INTRA:                  -0.518
 UNBOUND:                -0.227
  Name = /scratch/kmzp800/tmp5627zks9/tmpgrona5cs.pdb
  4 active torsions:
  status: ('A' for Active; 'I' for Inactive)
    1  A    between atoms: C3_3  and  O1_4
    2  A    between atoms: O1_4  and  C4_5
    3  A    between atoms: N2_11  and  C9_12
    4  A    between atoms: N4_15  and  C11_16
                            x       y       z     vdW  Elec       q    Type
                         _______ _______ _______ _____ _____    ______ ____

>  <TORSDO>  (1) 
F 2

>  <grid_id>  (1) 
p38-prepared

>  <grid_path>  (1) 
/projects/mai/users/kmzp800_harry/pmx_colab/docking_jobs/p38/vina_docking/input_files/p38_vina.pdbqt

>  <grid_filename>  (1) 
p38_vina.pdbqt

>  <docking_score>  (1) 
-7.66

>  <compound_name>  (1) 
lig_p38a_2v

>  <index_string>  (1) 
24:0:0

$$$$
