32:0:0
     RDKit          3D

 52 55  0  0  1  0  0  0  0  0999 V2000
   33.4790   35.4890   19.9130 C   0  0  0  0  0  0  0  0  0  0  0  0
   33.3000   36.7410   20.4980 C   0  0  0  0  0  0  0  0  0  0  0  0
   32.8600   36.8350   21.8120 C   0  0  0  0  0  0  0  0  0  0  0  0
   32.6840   38.0720   22.4260 C   0  0  0  0  0  0  0  0  0  0  0  0
   32.2560   38.1290   23.7150 N   0  0  0  0  0  0  0  0  0  0  0  0
   31.9970   36.9940   24.4210 C   0  0  0  0  0  0  0  0  0  0  0  0
   31.5460   37.0670   25.7740 N   0  0  0  0  0  0  0  0  0  0  0  0
   32.1610   35.7780   23.8340 N   0  0  0  0  0  0  0  0  0  0  0  0
   32.5880   35.6670   22.5450 C   0  0  0  0  0  0  0  0  0  0  0  0
   32.7450   34.4410   21.9580 N   0  0  0  0  0  0  0  0  0  0  0  0
   32.4440   33.2320   22.7220 C   0  0  0  0  0  0  0  0  0  0  0  0
   33.1690   34.3310   20.6590 C   0  0  0  0  0  0  0  0  0  0  0  0
   33.2640   33.1940   20.1200 O   0  0  0  0  0  0  0  0  0  0  0  0
   31.3780   38.3260   26.4870 C   0  0  0  0  0  0  0  0  0  0  0  0
   32.6450   39.1880   26.3370 C   0  0  0  0  0  0  0  0  0  0  0  0
   33.1790   39.7060   27.6710 C   0  0  0  0  0  0  0  0  0  0  0  0
   33.3080   38.5970   28.6150 N   0  0  0  0  0  0  0  0  0  0  0  0
   34.4940   38.4550   29.4130 C   0  0  0  0  0  0  0  0  0  0  0  0
   34.5940   37.5110   30.2400 O   0  0  0  0  0  0  0  0  0  0  0  0
   35.6280   39.4160   29.2810 C   0  0  0  0  0  0  0  0  0  0  0  0
   32.2050   37.6450   28.7810 C   0  0  0  0  0  0  0  0  0  0  0  0
   30.9910   38.0490   27.9430 C   0  0  0  0  0  0  0  0  0  0  0  0
   33.9190   35.4340   18.5830 O   0  0  0  0  0  0  0  0  0  0  0  0
   37.5660   35.9870   18.7540 C   0  0  0  0  0  0  0  0  0  0  0  0
   36.2320   35.8010   19.1270 C   0  0  0  0  0  0  0  0  0  0  0  0
   35.2400   35.6260   18.1570 C   0  0  0  0  0  0  0  0  0  0  0  0
   35.6050   35.6090   16.7930 C   0  0  0  0  0  0  0  0  0  0  0  0
   34.6860   35.3720   15.8250 F   0  0  0  0  0  0  0  0  0  0  0  0
   36.9410   35.7940   16.4250 C   0  0  0  0  0  0  0  0  0  0  0  0
   37.9190   35.9910   17.4030 C   0  0  0  0  0  0  0  0  0  0  0  0
   39.2110   36.1710   17.0410 F   0  0  0  0  0  0  0  0  0  0  0  0
   33.5069   37.6537   19.9199 H   0  0  0  0  0  0  0  0  0  0  0  0
   32.8903   38.9989   21.8707 H   0  0  0  0  0  0  0  0  0  0  0  0
   31.3297   36.1895   26.2681 H   0  0  0  0  0  0  0  0  0  0  0  0
   32.4995   33.4548   23.7978 H   0  0  0  0  0  0  0  0  0  0  0  0
   31.4315   32.8826   22.4716 H   0  0  0  0  0  0  0  0  0  0  0  0
   33.1745   32.4487   22.4716 H   0  0  0  0  0  0  0  0  0  0  0  0
   30.5541   38.9093   26.0500 H   0  0  0  0  0  0  0  0  0  0  0  0
   33.4274   38.5801   25.8591 H   0  0  0  0  0  0  0  0  0  0  0  0
   32.3753   40.0643   25.7293 H   0  0  0  0  0  0  0  0  0  0  0  0
   34.1642   40.1698   27.5151 H   0  0  0  0  0  0  0  0  0  0  0  0
   32.4799   40.4512   28.0783 H   0  0  0  0  0  0  0  0  0  0  0  0
   35.9766   39.7114   30.2816 H   0  0  0  0  0  0  0  0  0  0  0  0
   36.4523   38.9373   28.7321 H   0  0  0  0  0  0  0  0  0  0  0  0
   35.2910   40.3077   28.7321 H   0  0  0  0  0  0  0  0  0  0  0  0
   32.5425   36.6470   28.4648 H   0  0  0  0  0  0  0  0  0  0  0  0
   31.9088   37.6383   29.8403 H   0  0  0  0  0  0  0  0  0  0  0  0
   30.5467   38.9585   28.3735 H   0  0  0  0  0  0  0  0  0  0  0  0
   30.2718   37.2167   27.9555 H   0  0  0  0  0  0  0  0  0  0  0  0
   38.3378   36.1302   19.5246 H   0  0  0  0  0  0  0  0  0  0  0  0
   35.9600   35.7922   20.1928 H   0  0  0  0  0  0  0  0  0  0  0  0
   37.2231   35.7844   15.3618 H   0  0  0  0  0  0  0  0  0  0  0  0
  1  2  2  0
  1 12  1  0
  1 23  1  0
  2  3  1  0
  2 32  1  0
  3  4  2  0
  3  9  1  0
  4  5  1  0
  4 33  1  0
  5  6  2  0
  6  7  1  0
  6  8  1  0
  7 14  1  0
  7 34  1  0
  8  9  2  0
  9 10  1  0
 10 11  1  0
 10 12  1  0
 11 35  1  0
 11 36  1  0
 11 37  1  0
 12 13  2  0
 14 22  1  0
 14 15  1  0
 14 38  1  0
 15 16  1  0
 15 39  1  0
 15 40  1  0
 16 17  1  0
 16 41  1  0
 16 42  1  0
 17 21  1  0
 17 18  1  0
 18 19  2  0
 18 20  1  0
 20 43  1  0
 20 44  1  0
 20 45  1  0
 21 22  1  0
 21 46  1  0
 21 47  1  0
 22 48  1  0
 22 49  1  0
 23 26  1  0
 24 25  2  0
 24 30  1  0
 24 50  1  0
 25 26  1  0
 25 51  1  0
 26 27  2  0
 27 28  1  0
 27 29  1  0
 29 30  2  0
 29 52  1  0
 30 31  1  0
M  END
>  <s_m_entry_id>  (1) 
1387

>  <MODEL>  (1) 
1

>  <REMARK>  (1) 
 VINA RESULT:    -8.932      0.000      0.000
 INTER + INTRA:         -10.501
 INTER:                 -10.498
 INTRA:                  -0.003
 UNBOUND:                -0.003
  Name = /scratch/kmzp800/tmp0kncosh4/tmpacndikmg.pdb
  5 active torsions:
  status: ('A' for Active; 'I' for Inactive)
    1  A    between atoms: C3_3  and  O1_4
    2  A    between atoms: O1_4  and  C4_5
    3  A    between atoms: N2_11  and  C9_12
    4  A    between atoms: C12_16  and  C13_18
    5  A    between atoms: N5_23  and  C17_24
                            x       y       z     vdW  Elec       q    Type
                         _______ _______ _______ _____ _____    ______ ____

>  <TORSDO>  (1) 
F 3

>  <grid_id>  (1) 
p38-prepared

>  <grid_path>  (1) 
/projects/mai/users/kmzp800_harry/pmx_colab/docking_jobs/p38/vina_docking/input_files/p38_vina.pdbqt

>  <grid_filename>  (1) 
p38_vina.pdbqt

>  <docking_score>  (1) 
-8.932

>  <compound_name>  (1) 
lig_p38a_2ee

>  <index_string>  (1) 
32:0:0

>  <s_m_Source_Path>  (1) 
/projects/mai/users/kmzp800_harry/pmx_colab/docking_jobs/p38

>  <s_m_Source_File>  (1) 
p38_confs_vina_naive.sdf

>  <i_m_Source_File_Index>  (1) 
34

$$$$
