27:0:0
     RDKit          3D

 62 66  0  0  1  0  0  0  0  0999 V2000
   -4.5197   -3.2765   15.4399 C   0  0  0  0  0  0  0  0  0  0  0  0
   -3.8911   -2.2678   14.6597 O   0  0  0  0  0  0  0  0  0  0  0  0
   -2.5352   -2.0761   14.8141 C   0  0  0  0  0  0  0  0  0  0  0  0
   -1.7402   -2.8345   15.7036 C   0  0  0  0  0  0  0  0  0  0  0  0
   -0.3663   -2.5838   15.8172 C   0  0  0  0  0  0  0  0  0  0  0  0
    0.2450   -1.5608   15.0709 C   0  0  0  0  0  0  0  0  0  0  0  0
    1.6115   -1.3371   15.2961 N   0  0  0  0  0  0  0  0  0  0  0  0
    2.5291   -0.4357   14.7287 C   0  0  0  0  0  0  0  0  0  0  0  0
    2.1997    0.3678   13.7489 N   0  0  0  0  0  0  0  0  0  0  0  0
    3.1279    1.2498   13.2299 C   0  0  0  0  0  0  0  0  0  0  0  0
    4.4279    1.2849   13.6818 C   0  0  0  0  0  0  0  0  0  0  0  0
    4.7591    0.4829   14.7231 N   0  0  0  0  0  0  0  0  0  0  0  0
    5.9046    0.3810   15.4833 C   0  0  0  0  0  0  0  0  0  0  0  0
    5.6008   -0.4945   16.4967 C   0  0  0  0  0  0  0  0  0  0  0  0
    4.3621   -1.0648   16.3210 N   0  0  0  0  0  0  0  0  0  0  0  0
    3.8318   -0.4160   15.2906 C   0  0  0  0  0  0  0  0  0  0  0  0
    2.6534    2.1638   12.1563 C   0  0  0  0  0  0  0  0  0  0  0  0
    3.5667    2.6700   11.1948 C   0  0  0  0  0  0  0  0  0  0  0  0
    3.1526    3.4943   10.1368 C   0  0  0  0  0  0  0  0  0  0  0  0
    1.7965    3.8473   10.0430 C   0  0  0  0  0  0  0  0  0  0  0  0
    0.8790    3.3906   11.0216 C   0  0  0  0  0  0  0  0  0  0  0  0
    1.2987    2.5471   12.0728 C   0  0  0  0  0  0  0  0  0  0  0  0
   -0.5576    3.7690   10.9350 C   0  0  0  0  0  0  0  0  0  0  0  0
   -1.2481    3.3530   10.0034 O   0  0  0  0  0  0  0  0  0  0  0  0
   -0.9797    4.5414   11.9562 N   0  0  0  0  0  0  0  0  0  0  0  0
   -2.2706    5.0974   12.1576 C   0  0  0  0  0  0  0  0  0  0  0  0
   -3.1560    5.2768   11.0767 C   0  0  0  0  0  0  0  0  0  0  0  0
   -4.4234    5.8451   11.2733 C   0  0  0  0  0  0  0  0  0  0  0  0
   -4.8347    6.2463   12.5602 C   0  0  0  0  0  0  0  0  0  0  0  0
   -3.9546    6.0721   13.6483 C   0  0  0  0  0  0  0  0  0  0  0  0
   -2.6703    5.5243   13.4436 C   0  0  0  0  0  0  0  0  0  0  0  0
   -6.1831    6.8648   12.7593 C   0  0  0  0  0  0  0  0  0  0  0  0
   -6.3323    7.8914   13.4170 O   0  0  0  0  0  0  0  0  0  0  0  0
   -7.2048    6.2091   12.2102 N   0  0  0  0  0  0  0  0  0  0  0  0
   -0.5450   -0.8116   14.1755 C   0  0  0  0  0  0  0  0  0  0  0  0
   -1.9308   -1.0586   14.0391 C   0  0  0  0  0  0  0  0  0  0  0  0
   -2.7484   -0.3333   13.1956 O   0  0  0  0  0  0  0  0  0  0  0  0
   -2.1854    0.6949   12.3871 C   0  0  0  0  0  0  0  0  0  0  0  0
   -5.5840   -3.2974   15.2061 H   0  0  0  0  0  0  0  0  0  0  0  0
   -4.1166   -4.2662   15.2182 H   0  0  0  0  0  0  0  0  0  0  0  0
   -4.4208   -3.0779   16.5086 H   0  0  0  0  0  0  0  0  0  0  0  0
   -2.1573   -3.6126   16.3219 H   0  0  0  0  0  0  0  0  0  0  0  0
    0.2144   -3.1811   16.5026 H   0  0  0  0  0  0  0  0  0  0  0  0
    2.0071   -1.8413   16.0817 H   0  0  0  0  0  0  0  0  0  0  0  0
    5.1977    1.9519   13.3126 H   0  0  0  0  0  0  0  0  0  0  0  0
    6.7695    0.9859   15.2478 H   0  0  0  0  0  0  0  0  0  0  0  0
    6.1584   -0.7530   17.3667 H   0  0  0  0  0  0  0  0  0  0  0  0
    4.6059    2.3923   11.2331 H   0  0  0  0  0  0  0  0  0  0  0  0
    3.8748    3.8322    9.4038 H   0  0  0  0  0  0  0  0  0  0  0  0
    1.4705    4.4736    9.2240 H   0  0  0  0  0  0  0  0  0  0  0  0
    0.6000    2.1759   12.8105 H   0  0  0  0  0  0  0  0  0  0  0  0
   -0.2783    4.7877   12.6376 H   0  0  0  0  0  0  0  0  0  0  0  0
   -2.8646    4.9919   10.0793 H   0  0  0  0  0  0  0  0  0  0  0  0
   -5.0741    5.9782   10.4231 H   0  0  0  0  0  0  0  0  0  0  0  0
   -4.2443    6.3772   14.6446 H   0  0  0  0  0  0  0  0  0  0  0  0
   -2.0124    5.4187   14.2966 H   0  0  0  0  0  0  0  0  0  0  0  0
   -8.1423    6.5621   12.3260 H   0  0  0  0  0  0  0  0  0  0  0  0
   -7.0346    5.3593   11.6938 H   0  0  0  0  0  0  0  0  0  0  0  0
   -0.0837   -0.0355   13.5963 H   0  0  0  0  0  0  0  0  0  0  0  0
   -2.9737    1.1409   11.7797 H   0  0  0  0  0  0  0  0  0  0  0  0
   -1.7540    1.4894   12.9961 H   0  0  0  0  0  0  0  0  0  0  0  0
   -1.4291    0.3063   11.7047 H   0  0  0  0  0  0  0  0  0  0  0  0
  1  2  1  0
  1 39  1  0
  1 40  1  0
  1 41  1  0
  2  3  1  0
  3  4  2  0
  3 36  1  0
  4  5  1  0
  4 42  1  0
  5  6  2  0
  5 43  1  0
  6  7  1  0
  6 35  1  0
  7  8  1  0
  7 44  1  0
  8  9  2  0
  8 16  1  0
  9 10  1  0
 10 11  2  0
 10 17  1  0
 11 12  1  0
 11 45  1  0
 12 13  1  0
 12 16  1  0
 13 14  2  0
 13 46  1  0
 14 15  1  0
 14 47  1  0
 15 16  2  0
 17 18  2  0
 17 22  1  0
 18 19  1  0
 18 48  1  0
 19 20  2  0
 19 49  1  0
 20 21  1  0
 20 50  1  0
 21 22  2  0
 21 23  1  0
 22 51  1  0
 23 24  2  0
 23 25  1  0
 25 26  1  0
 25 52  1  0
 26 27  2  0
 26 31  1  0
 27 28  1  0
 27 53  1  0
 28 29  2  0
 28 54  1  0
 29 30  1  0
 29 32  1  0
 30 31  2  0
 30 55  1  0
 31 56  1  0
 32 33  2  0
 32 34  1  0
 34 57  1  0
 34 58  1  0
 35 36  2  0
 35 59  1  0
 36 37  1  0
 37 38  1  0
 38 60  1  0
 38 61  1  0
 38 62  1  0
M  END
>  <s_m_entry_id>  (1) 
1083

>  <IC50[nM]>  (1) 
4.3

>  <s_m_Source_Path>  (1) 
/projects/mai/users/kmzp800_harry/pmx_colab/docking_jobs/syk

>  <s_m_Source_File>  (1) 
tnks2_lig.sdf

>  <i_m_Source_File_Index>  (1) 
29

>  <s_m_job_name>  (1) 
glide-dock_SP_syk_mcs

>  <r_i_docking_score>  (1) 
-7.7321810698811

>  <r_i_glide_gscore>  (1) 
-7.7321810698811

>  <r_i_glide_emodel>  (1) 
-68.3788838670745

>  <index_string>  (1) 
27:0:0

$$$$
