10:0:0
     RDKit          3D

 52 55  0  0  1  0  0  0  0  0999 V2000
    5.5800   -0.6460   16.3540 C   0  0  0  0  0  0  0  0  0  0  0  0
    4.2970   -1.0710   16.2200 N   0  0  0  0  0  0  0  0  0  0  0  0
    3.8160   -0.3160   15.2170 C   0  0  0  0  0  0  0  0  0  0  0  0
    2.5310   -0.3590   14.6830 C   0  0  0  0  0  0  0  0  0  0  0  0
    1.5610   -1.2770   15.2050 N   0  0  0  0  0  0  0  0  0  0  0  0
    2.2410    0.4980   13.6600 N   0  0  0  0  0  0  0  0  0  0  0  0
    3.1670    1.3790   13.1600 C   0  0  0  0  0  0  0  0  0  0  0  0
    4.4600    1.4000   13.7190 C   0  0  0  0  0  0  0  0  0  0  0  0
    4.7200    0.5390   14.7310 N   0  0  0  0  0  0  0  0  0  0  0  0
    5.8500    0.3580   15.4280 C   0  0  0  0  0  0  0  0  0  0  0  0
    0.2030   -1.4520   14.7760 C   0  0  0  0  0  0  0  0  0  0  0  0
   -0.4210   -2.6770   15.0210 C   0  0  0  0  0  0  0  0  0  0  0  0
   -1.7420   -2.8900   14.6210 C   0  0  0  0  0  0  0  0  0  0  0  0
   -2.4590   -1.8760   13.9670 C   0  0  0  0  0  0  0  0  0  0  0  0
   -1.8400   -0.6430   13.7160 C   0  0  0  0  0  0  0  0  0  0  0  0
   -0.5110   -0.4380   14.1230 C   0  0  0  0  0  0  0  0  0  0  0  0
   -3.7830   -2.0740   13.5590 O   0  0  0  0  0  0  0  0  0  0  0  0
   -4.1820   -3.1670   12.7440 C   0  0  0  0  0  0  0  0  0  0  0  0
   -2.5640    0.3610   13.0630 O   0  0  0  0  0  0  0  0  0  0  0  0
   -1.9910    1.2070   12.0760 C   0  0  0  0  0  0  0  0  0  0  0  0
    2.8070    2.2870   12.0510 C   0  0  0  0  0  0  0  0  0  0  0  0
    3.7840    2.7150   11.1470 C   0  0  0  0  0  0  0  0  0  0  0  0
    3.4510    3.5700   10.0980 C   0  0  0  0  0  0  0  0  0  0  0  0
    2.1310    4.0190    9.9280 C   0  0  0  0  0  0  0  0  0  0  0  0
    1.1330    3.5930   10.8350 C   0  0  0  0  0  0  0  0  0  0  0  0
    1.4880    2.7320   11.8840 C   0  0  0  0  0  0  0  0  0  0  0  0
   -0.2820    4.0220   10.7230 C   0  0  0  0  0  0  0  0  0  0  0  0
   -0.8680    4.5870   11.6830 O   0  0  0  0  0  0  0  0  0  0  0  0
   -1.0040    3.7990    9.5150 N   0  0  0  0  0  0  0  0  0  0  0  0
    1.8060    4.8780    8.8710 O   0  0  0  0  0  0  0  0  0  0  0  0
    2.0020    6.2850    8.9310 C   0  0  0  0  0  0  0  0  0  0  0  0
    6.3005   -1.0378   17.0870 H   0  0  0  0  0  0  0  0  0  0  0  0
    1.8756   -1.8810   15.9777 H   0  0  0  0  0  0  0  0  0  0  0  0
    5.2306    2.0911   13.3467 H   0  0  0  0  0  0  0  0  0  0  0  0
    6.8007    0.8951   15.2952 H   0  0  0  0  0  0  0  0  0  0  0  0
    0.1314   -3.4792   15.5322 H   0  0  0  0  0  0  0  0  0  0  0  0
   -2.2237   -3.8587   14.8198 H   0  0  0  0  0  0  0  0  0  0  0  0
   -0.0253    0.5293   13.9269 H   0  0  0  0  0  0  0  0  0  0  0  0
   -4.4890   -4.0080   13.3831 H   0  0  0  0  0  0  0  0  0  0  0  0
   -5.0267   -2.8617   12.1089 H   0  0  0  0  0  0  0  0  0  0  0  0
   -3.3393   -3.4776   12.1089 H   0  0  0  0  0  0  0  0  0  0  0  0
   -1.4391    2.0219   12.5672 H   0  0  0  0  0  0  0  0  0  0  0  0
   -1.3015    0.6234   11.4483 H   0  0  0  0  0  0  0  0  0  0  0  0
   -2.7888    1.6307   11.4483 H   0  0  0  0  0  0  0  0  0  0  0  0
    4.8233    2.3743   11.2646 H   0  0  0  0  0  0  0  0  0  0  0  0
    4.2311    3.8971    9.3949 H   0  0  0  0  0  0  0  0  0  0  0  0
    0.7143    2.3986   12.5913 H   0  0  0  0  0  0  0  0  0  0  0  0
   -1.9868    4.0979    9.4398 H   0  0  0  0  0  0  0  0  0  0  0  0
   -0.5431    3.3389    8.7170 H   0  0  0  0  0  0  0  0  0  0  0  0
    2.0465    6.6045    9.9826 H   0  0  0  0  0  0  0  0  0  0  0  0
    2.9451    6.5456    8.4284 H   0  0  0  0  0  0  0  0  0  0  0  0
    1.1660    6.7934    8.4284 H   0  0  0  0  0  0  0  0  0  0  0  0
  1  2  1  0
  1 10  2  0
  2  3  2  0
  3  4  1  0
  3  9  1  0
  4  5  1  0
  4  6  2  0
  5 11  1  0
  6  7  1  0
  7  8  2  0
  7 21  1  0
  8  9  1  0
  9 10  1  0
 11 12  2  0
 11 16  1  0
 12 13  1  0
 13 14  2  0
 14 15  1  0
 14 17  1  0
 15 16  2  0
 15 19  1  0
 17 18  1  0
 19 20  1  0
 21 22  2  0
 21 26  1  0
 22 23  1  0
 23 24  2  0
 24 25  1  0
 24 30  1  0
 25 26  2  0
 25 27  1  0
 27 28  2  0
 27 29  1  0
 30 31  1  0
  1 32  1  0
  5 33  1  0
  8 34  1  0
 10 35  1  0
 12 36  1  0
 13 37  1  0
 16 38  1  0
 18 39  1  0
 18 40  1  0
 18 41  1  0
 20 42  1  0
 20 43  1  0
 20 44  1  0
 22 45  1  0
 23 46  1  0
 26 47  1  0
 29 48  1  0
 29 49  1  0
 31 50  1  0
 31 51  1  0
 31 52  1  0
M  END
>  <s_m_entry_id>  (1) 
11

>  <MODEL>  (1) 
1

>  <REMARK>  (1) 
 VINA RESULT:    -9.128      0.000      0.000
 INTER + INTRA:         -13.259
 INTER:                 -12.330
 INTRA:                  -0.929
 UNBOUND:                -0.929
  Name = /scratch/kmzp800/tmp61z2_upw/tmpk4fmqu7x.pdb
  9 active torsions:
  status: ('A' for Active; 'I' for Inactive)
    1  A    between atoms: N2_5  and  C4_6
    2  A    between atoms: C7_9  and  O1_10
    3  A    between atoms: O1_10  and  C8_11
    4  A    between atoms: C9_12  and  O2_13
    5  A    between atoms: O2_13  and  C10_14
    6  A    between atoms: C12_17  and  C13_18
    7  A    between atoms: C16_21  and  O3_22
    8  A    between atoms: O3_22  and  C17_23
    9  A    between atoms: C18_24  and  C19_25
                            x       y       z     vdW  Elec       q    Type
                         _______ _______ _______ _____ _____    ______ ____

>  <TORSDO>  (1) 
F 6

>  <grid_id>  (1) 
syk-prepared

>  <grid_path>  (1) 
syk_vina.pdbqt

>  <grid_filename>  (1) 
syk_vina.pdbqt

>  <docking_score>  (1) 
-9.128

>  <compound_name>  (1) 
CHEMBL3265010

>  <index_string>  (1) 
10:0:0

>  <s_m_Source_Path>  (1) 
/projects/mai/users/kmzp800_harry/pmx_colab/docking_jobs/syk/vina_prep/output

>  <s_m_Source_File>  (1) 
ptp1b_docked_conformers.sdf

>  <i_m_Source_File_Index>  (1) 
11

$$$$
