10:0:0
     RDKit          3D

 56 59  0  0  1  0  0  0  0  0999 V2000
   32.7569   34.7015   14.3501 F   0  0  0  0  0  0  0  0  0  0  0  0
   33.4538   34.9229   15.4893 C   0  0  0  0  0  0  0  0  0  0  0  0
   32.7821   35.1493   16.6884 C   0  0  0  0  0  0  0  0  0  0  0  0
   33.4758   35.2438   17.9040 C   0  0  0  0  0  0  0  0  0  0  0  0
   32.7513   35.3753   19.0395 F   0  0  0  0  0  0  0  0  0  0  0  0
   34.8937   35.2148   17.9078 C   0  0  0  0  0  0  0  0  0  0  0  0
   35.5743   35.1483   16.6760 C   0  0  0  0  0  0  0  0  0  0  0  0
   34.8531   34.9272   15.4901 C   0  0  0  0  0  0  0  0  0  0  0  0
   35.6542   35.1729   19.0506 O   0  0  0  0  0  0  0  0  0  0  0  0
   35.1916   35.8026   20.1681 C   0  0  0  0  0  0  0  0  0  0  0  0
   35.2725   37.1402   20.2734 C   0  0  0  0  0  0  0  0  0  0  0  0
   34.5863   34.9784   21.2128 C   0  0  0  0  0  0  0  0  0  0  0  0
   34.4040   33.7765   21.0269 O   0  0  0  0  0  0  0  0  0  0  0  0
   34.2405   35.6078   22.3740 N   0  0  0  0  0  0  0  0  0  0  0  0
   33.7131   34.7875   23.4922 C   0  0  0  0  0  0  0  0  0  0  0  0
   34.7042   34.4803   24.6605 C   0  0  0  0  0  0  0  0  0  0  0  0
   35.6980   33.5504   24.2712 O   0  0  0  0  0  0  0  0  0  0  0  0
   35.4450   35.7039   25.2027 C   0  0  0  0  0  0  0  0  0  0  0  0
   33.9312   33.8131   25.8142 C   0  0  0  0  0  0  0  0  0  0  0  0
   34.3016   37.0367   22.5363 C   0  0  0  0  0  0  0  0  0  0  0  0
   34.8132   37.8177   21.4791 C   0  0  0  0  0  0  0  0  0  0  0  0
   33.8892   37.6501   23.6665 N   0  0  0  0  0  0  0  0  0  0  0  0
   34.0021   38.9683   23.7647 C   0  0  0  0  0  0  0  0  0  0  0  0
   34.4697   39.7887   22.8255 N   0  0  0  0  0  0  0  0  0  0  0  0
   34.8631   39.2136   21.6673 C   0  0  0  0  0  0  0  0  0  0  0  0
   33.6122   39.5548   24.9497 N   0  0  0  0  0  0  0  0  0  0  0  0
   33.0387   38.8767   26.1049 C   0  0  0  0  0  0  0  0  0  0  0  0
   33.1746   39.7411   27.3648 C   0  0  0  0  0  0  0  0  0  0  0  0
   32.5408   39.0293   28.5687 C   0  0  0  0  0  0  0  0  0  0  0  0
   31.1739   38.7489   28.2949 O   0  0  0  0  0  0  0  0  0  0  0  0
   30.9845   37.8845   27.1803 C   0  0  0  0  0  0  0  0  0  0  0  0
   31.5544   38.5305   25.9049 C   0  0  0  0  0  0  0  0  0  0  0  0
   31.7044   35.1539   16.6968 H   0  0  0  0  0  0  0  0  0  0  0  0
   36.6536   35.1471   16.6518 H   0  0  0  0  0  0  0  0  0  0  0  0
   35.3521   34.7462   14.5664 H   0  0  0  0  0  0  0  0  0  0  0  0
   35.7047   37.7348   19.4825 H   0  0  0  0  0  0  0  0  0  0  0  0
   32.8561   35.3198   23.9050 H   0  0  0  0  0  0  0  0  0  0  0  0
   33.2681   33.8551   23.1428 H   0  0  0  0  0  0  0  0  0  0  0  0
   35.3097   32.6788   24.2389 H   0  0  0  0  0  0  0  0  0  0  0  0
   34.7410   36.4179   25.6108 H   0  0  0  0  0  0  0  0  0  0  0  0
   36.0933   35.4525   26.0236 H   0  0  0  0  0  0  0  0  0  0  0  0
   36.0668   36.1863   24.4508 H   0  0  0  0  0  0  0  0  0  0  0  0
   33.1849   34.4893   26.2313 H   0  0  0  0  0  0  0  0  0  0  0  0
   33.3962   32.9197   25.4906 H   0  0  0  0  0  0  0  0  0  0  0  0
   34.5926   33.5244   26.6317 H   0  0  0  0  0  0  0  0  0  0  0  0
   35.2467   39.8686   20.9003 H   0  0  0  0  0  0  0  0  0  0  0  0
   33.7592   40.5533   25.0389 H   0  0  0  0  0  0  0  0  0  0  0  0
   33.5936   37.9586   26.2759 H   0  0  0  0  0  0  0  0  0  0  0  0
   34.2246   39.9485   27.5696 H   0  0  0  0  0  0  0  0  0  0  0  0
   32.6848   40.7062   27.2184 H   0  0  0  0  0  0  0  0  0  0  0  0
   33.0717   38.1052   28.8006 H   0  0  0  0  0  0  0  0  0  0  0  0
   32.5992   39.6620   29.4540 H   0  0  0  0  0  0  0  0  0  0  0  0
   31.4582   36.9209   27.3736 H   0  0  0  0  0  0  0  0  0  0  0  0
   29.9173   37.6952   27.0718 H   0  0  0  0  0  0  0  0  0  0  0  0
   30.9861   39.4318   25.6675 H   0  0  0  0  0  0  0  0  0  0  0  0
   31.4294   37.8501   25.0632 H   0  0  0  0  0  0  0  0  0  0  0  0
  1  2  1  0
  2  8  2  0
  2  3  1  0
  3  4  2  0
  3 33  1  0
  4  5  1  0
  4  6  1  0
  6  7  2  0
  6  9  1  0
  7  8  1  0
  7 34  1  0
  8 35  1  0
  9 10  1  0
 10 11  2  0
 10 12  1  0
 11 21  1  0
 11 36  1  0
 12 13  2  0
 12 14  1  0
 14 15  1  0
 14 20  1  0
 15 16  1  0
 15 37  1  0
 15 38  1  0
 16 17  1  0
 16 18  1  0
 16 19  1  0
 17 39  1  0
 18 40  1  0
 18 41  1  0
 18 42  1  0
 19 43  1  0
 19 44  1  0
 19 45  1  0
 20 21  2  0
 20 22  1  0
 21 25  1  0
 22 23  2  0
 23 24  1  0
 23 26  1  0
 24 25  2  0
 25 46  1  0
 26 27  1  0
 26 47  1  0
 27 32  1  0
 27 28  1  0
 27 48  1  0
 28 29  1  0
 28 49  1  0
 28 50  1  0
 29 30  1  0
 29 51  1  0
 29 52  1  0
 30 31  1  0
 31 32  1  0
 31 53  1  0
 31 54  1  0
 32 55  1  0
 32 56  1  0
M  END
>  <s_m_entry_id>  (1) 
257

>  <i_f3d_flags>  (1) 
0

>  <r_lp_tautomer_probability>  (1) 
1

>  <r_epik_Ionization_Penalty>  (1) 
  0.0000

>  <r_epik_State_Penalty>  (1) 
  0.0000

>  <i_epik_Tot_Q>  (1) 
0

>  <s_m_job_name>  (1) 
glide-dock_SP_p38_core_cons_top_1

>  <r_i_docking_score>  (1) 
-7.09097527239093

>  <r_i_glide_gscore>  (1) 
-7.09097527239093

>  <r_i_glide_emodel>  (1) 
-48.2387222936418

>  <index_string>  (1) 
10:0:0

$$$$
