12:0:0
     RDKit          3D

 59 63  0  0  1  0  0  0  0  0999 V2000
   32.7374   34.7137   14.3817 F   0  0  0  0  0  0  0  0  0  0  0  0
   33.4581   34.9235   15.5081 C   0  0  0  0  0  0  0  0  0  0  0  0
   34.8570   34.9223   15.4891 C   0  0  0  0  0  0  0  0  0  0  0  0
   35.6000   35.1493   16.6556 C   0  0  0  0  0  0  0  0  0  0  0  0
   36.9504   35.1955   16.5817 F   0  0  0  0  0  0  0  0  0  0  0  0
   34.9410   35.2274   17.8994 C   0  0  0  0  0  0  0  0  0  0  0  0
   33.5294   35.2303   17.9224 C   0  0  0  0  0  0  0  0  0  0  0  0
   32.8102   35.1493   16.7210 C   0  0  0  0  0  0  0  0  0  0  0  0
   35.6907   35.2184   19.0479 O   0  0  0  0  0  0  0  0  0  0  0  0
   35.1739   35.8228   20.1554 C   0  0  0  0  0  0  0  0  0  0  0  0
   35.2674   37.1589   20.2658 C   0  0  0  0  0  0  0  0  0  0  0  0
   34.5522   35.0036   21.2004 C   0  0  0  0  0  0  0  0  0  0  0  0
   34.3222   33.8136   20.9928 O   0  0  0  0  0  0  0  0  0  0  0  0
   34.2193   35.6308   22.3751 N   0  0  0  0  0  0  0  0  0  0  0  0
   33.6502   34.8163   23.4938 C   0  0  0  0  0  0  0  0  0  0  0  0
   34.4678   34.9217   24.8120 C   0  0  0  0  0  0  0  0  0  0  0  0
   33.9845   33.9735   25.9181 C   0  0  0  0  0  0  0  0  0  0  0  0
   32.1350   35.0861   23.6661 C   0  0  0  0  0  0  0  0  0  0  0  0
   31.4604   34.1076   24.6359 C   0  0  0  0  0  0  0  0  0  0  0  0
   32.2116   34.2389   26.3060 S   0  0  0  0  0  0  0  0  0  0  0  0
   31.7384   33.1210   27.1343 O   0  0  0  0  0  0  0  0  0  0  0  0
   32.0543   35.6260   26.7634 O   0  0  0  0  0  0  0  0  0  0  0  0
   34.3166   37.0653   22.5278 C   0  0  0  0  0  0  0  0  0  0  0  0
   34.8204   37.8434   21.4670 C   0  0  0  0  0  0  0  0  0  0  0  0
   33.9356   37.6972   23.6521 N   0  0  0  0  0  0  0  0  0  0  0  0
   34.0369   39.0146   23.7461 C   0  0  0  0  0  0  0  0  0  0  0  0
   34.4832   39.8347   22.7985 N   0  0  0  0  0  0  0  0  0  0  0  0
   34.8739   39.2441   21.6461 C   0  0  0  0  0  0  0  0  0  0  0  0
   33.6448   39.5756   24.9422 N   0  0  0  0  0  0  0  0  0  0  0  0
   33.4308   38.8252   26.1757 C   0  0  0  0  0  0  0  0  0  0  0  0
   34.7580   38.5072   26.8838 C   0  0  0  0  0  0  0  0  0  0  0  0
   34.4943   37.7886   28.2164 C   0  0  0  0  0  0  0  0  0  0  0  0
   33.6463   38.5848   29.0380 O   0  0  0  0  0  0  0  0  0  0  0  0
   32.3652   38.8162   28.4609 C   0  0  0  0  0  0  0  0  0  0  0  0
   32.5196   39.5897   27.1420 C   0  0  0  0  0  0  0  0  0  0  0  0
   35.3521   34.7494   14.5593 H   0  0  0  0  0  0  0  0  0  0  0  0
   32.9722   35.2892   18.8454 H   0  0  0  0  0  0  0  0  0  0  0  0
   31.7338   35.1498   16.7534 H   0  0  0  0  0  0  0  0  0  0  0  0
   35.7325   37.7480   19.4889 H   0  0  0  0  0  0  0  0  0  0  0  0
   33.7188   33.7555   23.2499 H   0  0  0  0  0  0  0  0  0  0  0  0
   35.5193   34.7145   24.6073 H   0  0  0  0  0  0  0  0  0  0  0  0
   34.4379   35.9203   25.2362 H   0  0  0  0  0  0  0  0  0  0  0  0
   34.1019   32.9328   25.6374 H   0  0  0  0  0  0  0  0  0  0  0  0
   34.5520   34.1281   26.8352 H   0  0  0  0  0  0  0  0  0  0  0  0
   31.9516   36.1015   24.0160 H   0  0  0  0  0  0  0  0  0  0  0  0
   31.6419   35.0056   22.6966 H   0  0  0  0  0  0  0  0  0  0  0  0
   31.5602   33.0777   24.2956 H   0  0  0  0  0  0  0  0  0  0  0  0
   30.3949   34.3223   24.7308 H   0  0  0  0  0  0  0  0  0  0  0  0
   35.2485   39.8931   20.8703 H   0  0  0  0  0  0  0  0  0  0  0  0
   33.7527   40.5790   25.0396 H   0  0  0  0  0  0  0  0  0  0  0  0
   32.9261   37.8895   25.9338 H   0  0  0  0  0  0  0  0  0  0  0  0
   35.3077   39.4299   27.0772 H   0  0  0  0  0  0  0  0  0  0  0  0
   35.3957   37.8911   26.2492 H   0  0  0  0  0  0  0  0  0  0  0  0
   35.4321   37.6196   28.7443 H   0  0  0  0  0  0  0  0  0  0  0  0
   34.0468   36.8076   28.0492 H   0  0  0  0  0  0  0  0  0  0  0  0
   31.7613   39.3924   29.1619 H   0  0  0  0  0  0  0  0  0  0  0  0
   31.8482   37.8691   28.3008 H   0  0  0  0  0  0  0  0  0  0  0  0
   31.5416   39.7535   26.6891 H   0  0  0  0  0  0  0  0  0  0  0  0
   32.9370   40.5756   27.3545 H   0  0  0  0  0  0  0  0  0  0  0  0
  1  2  1  0
  2  8  2  0
  2  3  1  0
  3  4  2  0
  3 36  1  0
  4  5  1  0
  4  6  1  0
  6  7  2  0
  6  9  1  0
  7  8  1  0
  7 37  1  0
  8 38  1  0
  9 10  1  0
 10 11  2  0
 10 12  1  0
 11 24  1  0
 11 39  1  0
 12 13  2  0
 12 14  1  0
 14 15  1  0
 14 23  1  0
 15 16  1  0
 15 18  1  0
 15 40  1  0
 16 17  1  0
 16 41  1  0
 16 42  1  0
 17 20  1  0
 17 43  1  0
 17 44  1  0
 18 19  1  0
 18 45  1  0
 18 46  1  0
 19 20  1  0
 19 47  1  0
 19 48  1  0
 20 21  2  0
 20 22  2  0
 23 24  2  0
 23 25  1  0
 24 28  1  0
 25 26  2  0
 26 27  1  0
 26 29  1  0
 27 28  2  0
 28 49  1  0
 29 30  1  0
 29 50  1  0
 30 35  1  0
 30 31  1  0
 30 51  1  0
 31 32  1  0
 31 52  1  0
 31 53  1  0
 32 33  1  0
 32 54  1  0
 32 55  1  0
 33 34  1  0
 34 35  1  0
 34 56  1  0
 34 57  1  0
 35 58  1  0
 35 59  1  0
M  END
>  <s_m_entry_id>  (1) 
265

>  <i_f3d_flags>  (1) 
0

>  <r_lp_tautomer_probability>  (1) 
1

>  <r_epik_Ionization_Penalty>  (1) 
  0.0000

>  <r_epik_State_Penalty>  (1) 
  0.0000

>  <i_epik_Tot_Q>  (1) 
0

>  <s_m_job_name>  (1) 
glide-dock_SP_p38_core_cons_top_1

>  <r_i_docking_score>  (1) 
-6.72052074899028

>  <r_i_glide_gscore>  (1) 
-6.72052074899028

>  <r_i_glide_emodel>  (1) 
-43.6411540524808

>  <index_string>  (1) 
12:0:0

$$$$
