16:0:0
     RDKit          3D

 44 46  0  0  1  0  0  0  0  0999 V2000
   38.9522   37.1500   15.4368 F   0  0  0  0  0  0  0  0  0  0  0  0
   38.1708   36.5363   16.3132 C   0  0  0  0  0  0  0  0  0  0  0  0
   36.9098   36.1947   15.8487 C   0  0  0  0  0  0  0  0  0  0  0  0
   35.9623   35.6919   16.7327 C   0  0  0  0  0  0  0  0  0  0  0  0
   34.7601   35.2904   16.2697 F   0  0  0  0  0  0  0  0  0  0  0  0
   36.2635   35.6392   18.1023 C   0  0  0  0  0  0  0  0  0  0  0  0
   37.5637   35.9492   18.5719 C   0  0  0  0  0  0  0  0  0  0  0  0
   38.5484   36.3493   17.6554 C   0  0  0  0  0  0  0  0  0  0  0  0
   35.3059   35.1709   18.9427 O   0  0  0  0  0  0  0  0  0  0  0  0
   35.1243   35.7973   20.1400 C   0  0  0  0  0  0  0  0  0  0  0  0
   35.2285   37.1427   20.2661 C   0  0  0  0  0  0  0  0  0  0  0  0
   34.5187   34.9839   21.1951 C   0  0  0  0  0  0  0  0  0  0  0  0
   34.2985   33.7885   21.0171 O   0  0  0  0  0  0  0  0  0  0  0  0
   34.1957   35.6201   22.3597 N   0  0  0  0  0  0  0  0  0  0  0  0
   33.7106   34.8334   23.5068 C   0  0  0  0  0  0  0  0  0  0  0  0
   34.2968   37.0380   22.5389 C   0  0  0  0  0  0  0  0  0  0  0  0
   34.8092   37.8161   21.4836 C   0  0  0  0  0  0  0  0  0  0  0  0
   33.9088   37.6421   23.6820 N   0  0  0  0  0  0  0  0  0  0  0  0
   34.0226   38.9647   23.7719 C   0  0  0  0  0  0  0  0  0  0  0  0
   34.4857   39.7861   22.8284 N   0  0  0  0  0  0  0  0  0  0  0  0
   34.8706   39.2116   21.6654 C   0  0  0  0  0  0  0  0  0  0  0  0
   33.5967   39.5537   24.9405 N   0  0  0  0  0  0  0  0  0  0  0  0
   32.7202   38.9304   25.9248 C   0  0  0  0  0  0  0  0  0  0  0  0
   33.4628   38.0291   26.9293 C   0  0  0  0  0  0  0  0  0  0  0  0
   34.6642   38.9253   28.0120 S   0  0  0  0  0  0  0  0  0  0  0  0
   35.7285   39.5008   27.1777 O   0  0  0  0  0  0  0  0  0  0  0  0
   35.0211   38.0325   29.1244 O   0  0  0  0  0  0  0  0  0  0  0  0
   33.6660   40.3122   28.6891 C   0  0  0  0  0  0  0  0  0  0  0  0
   36.6962   36.3573   14.8085 H   0  0  0  0  0  0  0  0  0  0  0  0
   37.8209   35.8190   19.6160 H   0  0  0  0  0  0  0  0  0  0  0  0
   39.5483   36.5801   17.9940 H   0  0  0  0  0  0  0  0  0  0  0  0
   35.5549   37.7812   19.4592 H   0  0  0  0  0  0  0  0  0  0  0  0
   33.5651   33.7725   23.3072 H   0  0  0  0  0  0  0  0  0  0  0  0
   34.4170   34.9023   24.3349 H   0  0  0  0  0  0  0  0  0  0  0  0
   32.7529   35.2182   23.8558 H   0  0  0  0  0  0  0  0  0  0  0  0
   35.2557   39.8748   20.9090 H   0  0  0  0  0  0  0  0  0  0  0  0
   33.7520   40.5516   25.0362 H   0  0  0  0  0  0  0  0  0  0  0  0
   31.9645   38.3456   25.3977 H   0  0  0  0  0  0  0  0  0  0  0  0
   32.1742   39.7173   26.4454 H   0  0  0  0  0  0  0  0  0  0  0  0
   34.0093   37.2389   26.4137 H   0  0  0  0  0  0  0  0  0  0  0  0
   32.7419   37.5381   27.5822 H   0  0  0  0  0  0  0  0  0  0  0  0
   34.2605   40.8501   29.4260 H   0  0  0  0  0  0  0  0  0  0  0  0
   32.7676   39.9225   29.1659 H   0  0  0  0  0  0  0  0  0  0  0  0
   33.3957   41.0041   27.8918 H   0  0  0  0  0  0  0  0  0  0  0  0
  1  2  1  0
  2  8  2  0
  2  3  1  0
  3  4  2  0
  3 29  1  0
  4  5  1  0
  4  6  1  0
  6  7  2  0
  6  9  1  0
  7  8  1  0
  7 30  1  0
  8 31  1  0
  9 10  1  0
 10 11  2  0
 10 12  1  0
 11 17  1  0
 11 32  1  0
 12 13  2  0
 12 14  1  0
 14 15  1  0
 14 16  1  0
 15 33  1  0
 15 34  1  0
 15 35  1  0
 16 17  2  0
 16 18  1  0
 17 21  1  0
 18 19  2  0
 19 20  1  0
 19 22  1  0
 20 21  2  0
 21 36  1  0
 22 23  1  0
 22 37  1  0
 23 24  1  0
 23 38  1  0
 23 39  1  0
 24 25  1  0
 24 40  1  0
 24 41  1  0
 25 26  2  0
 25 27  2  0
 25 28  1  0
 28 42  1  0
 28 43  1  0
 28 44  1  0
M  END
>  <s_m_entry_id>  (1) 
268

>  <i_f3d_flags>  (1) 
0

>  <r_lp_tautomer_probability>  (1) 
1

>  <r_epik_Ionization_Penalty>  (1) 
  0.0000

>  <r_epik_State_Penalty>  (1) 
  0.0000

>  <i_epik_Tot_Q>  (1) 
0

>  <s_m_job_name>  (1) 
glide-dock_SP_p38_core_cons_top_1

>  <r_i_docking_score>  (1) 
-6.69608470688143

>  <r_i_glide_gscore>  (1) 
-6.69608470688143

>  <r_i_glide_emodel>  (1) 
-46.4758533571179

>  <index_string>  (1) 
16:0:0

$$$$
