10:0:0
     RDKit          3D

 31 32  0  0  1  0  0  0  0  0999 V2000
   41.4214   17.4860   11.8345 O   0  0  0  0  0  0  0  0  0  0  0  0
   40.5869   17.3534   12.7601 C   0  0  0  0  0  0  0  0  0  0  0  0
   39.4517   17.8753   12.7561 O   0  0  0  0  0  0  0  0  0  0  0  0
   40.9661   16.5075   13.9872 C   0  0  0  0  0  0  0  0  0  0  0  0
   42.1042   15.6985   13.7056 O   0  0  0  0  0  0  0  0  0  0  0  0
   42.5108   14.9208   14.7335 C   0  0  0  0  0  0  0  0  0  0  0  0
   42.1515   13.5691   14.9018 C   0  0  0  0  0  0  0  0  0  0  0  0
   40.9833   12.7304   13.6943 Br  0  0  0  0  0  0  0  0  0  0  0  0
   42.6195   12.9326   16.0165 C   0  0  0  0  0  0  0  0  0  0  0  0
   43.6383   14.0144   16.9080 S   0  0  0  0  0  0  0  0  0  0  0  0
   43.3300   15.3090   15.7570 C   0  0  0  0  0  0  0  0  0  0  0  0
   43.9490   16.5857   16.0578 C   0  0  0  0  0  0  0  0  0  0  0  0
   44.5817   16.6800   17.1282 O   0  0  0  0  0  0  0  0  0  0  0  0
   43.8213   17.5421   15.2634 O   0  0  0  0  0  0  0  0  0  0  0  0
   42.3592   11.5725   16.4962 C   0  0  0  0  0  0  0  0  0  0  0  0
   43.4115   10.7947   17.0272 C   0  0  0  0  0  0  0  0  0  0  0  0
   43.1708    9.4779   17.4620 C   0  0  0  0  0  0  0  0  0  0  0  0
   41.8857    8.9268   17.3497 C   0  0  0  0  0  0  0  0  0  0  0  0
   40.8133    9.6812   16.8208 C   0  0  0  0  0  0  0  0  0  0  0  0
   41.0584   11.0120   16.4233 C   0  0  0  0  0  0  0  0  0  0  0  0
   39.5400    9.1680   16.6779 O   0  0  0  0  0  0  0  0  0  0  0  0
   39.3806    7.7623   16.8590 C   0  0  0  0  0  0  0  0  0  0  0  0
   41.1722   17.1824   14.8192 H   0  0  0  0  0  0  0  0  0  0  0  0
   40.1288   15.8760   14.2922 H   0  0  0  0  0  0  0  0  0  0  0  0
   44.4071   11.1976   17.1022 H   0  0  0  0  0  0  0  0  0  0  0  0
   43.9706    8.8873   17.8844 H   0  0  0  0  0  0  0  0  0  0  0  0
   41.7315    7.9181   17.7023 H   0  0  0  0  0  0  0  0  0  0  0  0
   40.2364   11.6058   16.0521 H   0  0  0  0  0  0  0  0  0  0  0  0
   38.3609    7.4648   16.6354 H   0  0  0  0  0  0  0  0  0  0  0  0
   40.0319    7.1996   16.1894 H   0  0  0  0  0  0  0  0  0  0  0  0
   39.5804    7.4500   17.8842 H   0  0  0  0  0  0  0  0  0  0  0  0
  1  2  2  0
  2  3  1  0
  2  4  1  0
  4  5  1  0
  4 23  1  0
  4 24  1  0
  5  6  1  0
  6 11  2  0
  6  7  1  0
  7  8  1  0
  7  9  2  0
  9 10  1  0
  9 15  1  0
 10 11  1  0
 11 12  1  0
 12 13  2  0
 12 14  1  0
 15 20  1  0
 15 16  2  0
 16 17  1  0
 16 25  1  0
 17 18  2  0
 17 26  1  0
 18 19  1  0
 18 27  1  0
 19 20  2  0
 19 21  1  0
 20 28  1  0
 21 22  1  0
 22 29  1  0
 22 30  1  0
 22 31  1  0
M  CHG  2   3  -1  14  -1
M  END
>  <s_m_entry_id>  (1) 
485

>  <i_f3d_flags>  (1) 
0

>  <r_epik_Ionization_Penalty>  (1) 
  0.0001

>  <r_epik_State_Penalty>  (1) 
  0.0000

>  <i_epik_Tot_Q>  (1) 
-2

>  <s_m_job_name>  (1) 
glide-dock_SP_ptp1b_core_cons

>  <r_lp_tautomer_probability>  (1) 
1

>  <r_i_docking_score>  (1) 
-7.13662075755738

>  <r_i_glide_gscore>  (1) 
-7.13662075755738

>  <r_i_glide_emodel>  (1) 
-84.0321787237541

>  <index_string>  (1) 
10:0:0

$$$$
