3:0:0
     RDKit          3D

 46 49  0  0  1  0  0  0  0  0999 V2000
  -14.4480  -14.9003  -27.6683 C   0  0  0  0  0  0  0  0  0  0  0  0
  -15.0094  -15.7145  -26.6578 C   0  0  0  0  0  0  0  0  0  0  0  0
  -14.4478  -13.5101  -27.5473 C   0  0  0  0  0  0  0  0  0  0  0  0
  -15.6480  -15.0925  -25.5563 C   0  0  0  0  0  0  0  0  0  0  0  0
  -14.8486  -17.1129  -26.7059 N   0  0  0  0  0  0  0  0  0  0  0  0
  -15.0005  -12.9046  -26.4260 C   0  0  0  0  0  0  0  0  0  0  0  0
  -15.6488  -13.6793  -25.4370 C   0  0  0  0  0  0  0  0  0  0  0  0
  -16.2354  -15.9914  -24.5091 C   0  0  0  0  0  0  0  0  0  0  0  0
  -16.0389  -17.3032  -24.6930 N   0  0  0  0  0  0  0  0  0  0  0  0
  -16.8479  -15.5718  -23.5387 O   0  0  0  0  0  0  0  0  0  0  0  0
  -15.3177  -17.8682  -25.7498 C   0  0  0  0  0  0  0  0  0  0  0  0
  -15.1437  -19.3508  -25.8068 C   0  0  0  0  0  0  0  0  0  0  0  0
  -14.8482  -19.9558  -27.0413 C   0  0  0  0  0  0  0  0  0  0  0  0
  -14.6967  -21.3424  -27.1297 C   0  0  0  0  0  0  0  0  0  0  0  0
  -14.8350  -22.1685  -26.0006 C   0  0  0  0  0  0  0  0  0  0  0  0
  -15.1227  -21.5691  -24.7555 C   0  0  0  0  0  0  0  0  0  0  0  0
  -15.2731  -20.1678  -24.6584 C   0  0  0  0  0  0  0  0  0  0  0  0
  -13.7908  -15.4631  -28.8900 C   0  0  0  0  0  0  0  0  0  0  0  0
  -14.8482  -11.5727  -26.3385 F   0  0  0  0  0  0  0  0  0  0  0  0
  -14.7113  -23.6806  -26.1576 C   0  0  0  0  0  0  0  0  0  0  0  0
  -15.8889  -24.2250  -26.9945 C   0  0  0  0  0  0  0  0  0  0  0  0
  -15.7413  -25.7218  -27.2947 C   0  0  0  0  0  0  0  0  0  0  0  0
  -14.4646  -25.9804  -27.9939 N   0  0  0  0  0  0  0  0  0  0  0  0
  -13.2837  -25.5763  -27.2016 C   0  0  0  0  0  0  0  0  0  0  0  0
  -13.3544  -24.0912  -26.7888 C   0  0  0  0  0  0  0  0  0  0  0  0
  -13.9767  -12.8916  -28.2985 H   0  0  0  0  0  0  0  0  0  0  0  0
  -16.0927  -13.1979  -24.5766 H   0  0  0  0  0  0  0  0  0  0  0  0
  -16.4811  -17.9232  -24.0259 H   0  0  0  0  0  0  0  0  0  0  0  0
  -14.7320  -19.3656  -27.9388 H   0  0  0  0  0  0  0  0  0  0  0  0
  -14.4604  -21.7559  -28.0861 H   0  0  0  0  0  0  0  0  0  0  0  0
  -15.2405  -22.1791  -23.8723 H   0  0  0  0  0  0  0  0  0  0  0  0
  -15.5046  -19.7359  -23.6958 H   0  0  0  0  0  0  0  0  0  0  0  0
  -14.2227  -16.4261  -29.1363 H   0  0  0  0  0  0  0  0  0  0  0  0
  -13.9631  -14.7997  -29.7392 H   0  0  0  0  0  0  0  0  0  0  0  0
  -12.7193  -15.5719  -28.7412 H   0  0  0  0  0  0  0  0  0  0  0  0
  -14.7726  -24.1230  -25.1632 H   0  0  0  0  0  0  0  0  0  0  0  0
  -16.8304  -24.0435  -26.4756 H   0  0  0  0  0  0  0  0  0  0  0  0
  -15.9576  -23.6867  -27.9393 H   0  0  0  0  0  0  0  0  0  0  0  0
  -15.7868  -26.3009  -26.3721 H   0  0  0  0  0  0  0  0  0  0  0  0
  -16.5667  -26.0616  -27.9212 H   0  0  0  0  0  0  0  0  0  0  0  0
  -14.3964  -26.9674  -28.2009 H   0  0  0  0  0  0  0  0  0  0  0  0
  -13.2069  -26.2303  -26.3391 H   0  0  0  0  0  0  0  0  0  0  0  0
  -12.3838  -25.7528  -27.7919 H   0  0  0  0  0  0  0  0  0  0  0  0
  -13.1578  -23.5024  -27.6819 H   0  0  0  0  0  0  0  0  0  0  0  0
  -12.5401  -23.8569  -26.1009 H   0  0  0  0  0  0  0  0  0  0  0  0
  -14.4614  -25.4687  -28.8646 H   0  0  0  0  0  0  0  0  0  0  0  0
  1  2  2  0
  1  3  1  0
  1 18  1  0
  2  4  1  0
  2  5  1  0
  3  6  2  0
  3 26  1  0
  4  7  2  0
  4  8  1  0
  5 11  2  0
  6  7  1  0
  6 19  1  0
  7 27  1  0
  8  9  1  0
  8 10  2  0
  9 11  1  0
  9 28  1  0
 11 12  1  0
 12 13  2  0
 12 17  1  0
 13 14  1  0
 13 29  1  0
 14 15  2  0
 14 30  1  0
 15 16  1  0
 15 20  1  0
 16 17  2  0
 16 31  1  0
 17 32  1  0
 18 33  1  0
 18 34  1  0
 18 35  1  0
 20 21  1  0
 20 25  1  0
 20 36  1  0
 21 22  1  0
 21 37  1  0
 21 38  1  0
 22 23  1  0
 22 39  1  0
 22 40  1  0
 23 24  1  0
 23 41  1  0
 23 46  1  0
 24 25  1  0
 24 42  1  0
 24 43  1  0
 25 44  1  0
 25 45  1  0
M  CHG  1  23   1
M  END
>  <s_m_entry_id>  (1) 
418

>  <Name>  (1) 
8d

>  <IC50[nM]>  (1) 
0.7

>  <s_m_Source_Path>  (1) 
/projects/mai/users/kmzp800_harry/pmx_colab/docking_jobs/tnks2

>  <s_m_Source_File>  (1) 
tnks2_lig.sdf

>  <i_m_Source_File_Index>  (1) 
4

>  <s_m_job_name>  (1) 
glide-dock_SP_tnks2_no_cons

>  <r_i_docking_score>  (1) 
-10.4228272781008

>  <r_i_glide_gscore>  (1) 
-10.4228272781008

>  <r_i_glide_emodel>  (1) 
-57.4458172119809

>  <index_string>  (1) 
3:0:0

$$$$
