10:0:0
     RDKit          3D

 37 39  0  0  1  0  0  0  0  0999 V2000
  -14.4236  -14.8481  -27.7058 C   0  0  0  0  0  0  0  0  0  0  0  0
  -15.0215  -15.6368  -26.7045 C   0  0  0  0  0  0  0  0  0  0  0  0
  -14.5127  -13.4586  -27.6451 C   0  0  0  0  0  0  0  0  0  0  0  0
  -15.7360  -15.0274  -25.6460 C   0  0  0  0  0  0  0  0  0  0  0  0
  -14.8480  -17.0272  -26.7607 N   0  0  0  0  0  0  0  0  0  0  0  0
  -15.2426  -12.8514  -26.6280 C   0  0  0  0  0  0  0  0  0  0  0  0
  -15.8510  -13.6165  -25.6004 C   0  0  0  0  0  0  0  0  0  0  0  0
  -16.3526  -15.9434  -24.6259 C   0  0  0  0  0  0  0  0  0  0  0  0
  -16.1177  -17.2449  -24.8130 N   0  0  0  0  0  0  0  0  0  0  0  0
  -17.0322  -15.5713  -23.6820 O   0  0  0  0  0  0  0  0  0  0  0  0
  -15.3677  -17.7942  -25.8480 C   0  0  0  0  0  0  0  0  0  0  0  0
  -15.2124  -19.2681  -25.9327 C   0  0  0  0  0  0  0  0  0  0  0  0
  -15.4571  -20.0979  -24.8185 C   0  0  0  0  0  0  0  0  0  0  0  0
  -15.2419  -21.4855  -24.9144 C   0  0  0  0  0  0  0  0  0  0  0  0
  -14.7747  -22.0591  -26.1192 C   0  0  0  0  0  0  0  0  0  0  0  0
  -14.5543  -21.2180  -27.2238 C   0  0  0  0  0  0  0  0  0  0  0  0
  -14.7812  -19.8440  -27.1386 C   0  0  0  0  0  0  0  0  0  0  0  0
  -14.4989  -23.5556  -26.2223 C   0  0  0  0  0  0  0  0  0  0  0  0
  -14.2648  -23.9884  -27.5385 O   0  0  0  0  0  0  0  0  0  0  0  0
  -13.7196  -15.4069  -28.7159 F   0  0  0  0  0  0  0  0  0  0  0  0
  -15.3656  -11.5197  -26.7391 F   0  0  0  0  0  0  0  0  0  0  0  0
  -15.7333  -24.3545  -25.8022 C   0  0  0  0  0  0  0  0  0  0  0  0
  -13.2180  -23.9163  -25.4530 C   0  0  0  0  0  0  0  0  0  0  0  0
  -14.0710  -12.8325  -28.4061 H   0  0  0  0  0  0  0  0  0  0  0  0
  -16.4076  -13.1407  -24.8019 H   0  0  0  0  0  0  0  0  0  0  0  0
  -16.5677  -17.8810  -24.1621 H   0  0  0  0  0  0  0  0  0  0  0  0
  -15.8048  -19.6859  -23.8833 H   0  0  0  0  0  0  0  0  0  0  0  0
  -15.4247  -22.1005  -24.0455 H   0  0  0  0  0  0  0  0  0  0  0  0
  -14.1673  -21.5730  -28.1550 H   0  0  0  0  0  0  0  0  0  0  0  0
  -14.5783  -19.2360  -28.0107 H   0  0  0  0  0  0  0  0  0  0  0  0
  -14.1260  -24.9226  -27.5254 H   0  0  0  0  0  0  0  0  0  0  0  0
  -15.9657  -24.2002  -24.7481 H   0  0  0  0  0  0  0  0  0  0  0  0
  -15.6162  -25.4276  -25.9454 H   0  0  0  0  0  0  0  0  0  0  0  0
  -16.6140  -24.0525  -26.3716 H   0  0  0  0  0  0  0  0  0  0  0  0
  -13.3277  -23.7287  -24.3841 H   0  0  0  0  0  0  0  0  0  0  0  0
  -12.9133  -24.9541  -25.5867 H   0  0  0  0  0  0  0  0  0  0  0  0
  -12.3755  -23.3276  -25.8102 H   0  0  0  0  0  0  0  0  0  0  0  0
  1  2  2  0
  1  3  1  0
  1 20  1  0
  2  4  1  0
  2  5  1  0
  3  6  2  0
  3 24  1  0
  4  7  2  0
  4  8  1  0
  5 11  2  0
  6  7  1  0
  6 21  1  0
  7 25  1  0
  8  9  1  0
  8 10  2  0
  9 11  1  0
  9 26  1  0
 11 12  1  0
 12 13  2  0
 12 17  1  0
 13 14  1  0
 13 27  1  0
 14 15  2  0
 14 28  1  0
 15 16  1  0
 15 18  1  0
 16 17  2  0
 16 29  1  0
 17 30  1  0
 18 19  1  0
 18 22  1  0
 18 23  1  0
 19 31  1  0
 22 32  1  0
 22 33  1  0
 22 34  1  0
 23 35  1  0
 23 36  1  0
 23 37  1  0
M  END
>  <s_m_entry_id>  (1) 
452

>  <Name>  (1) 
5k

>  <IC50[nM]>  (1) 
9.2

>  <s_m_Source_Path>  (1) 
/projects/mai/users/kmzp800_harry/pmx_colab/docking_jobs/tnks2

>  <s_m_Source_File>  (1) 
tnks2_lig.sdf

>  <i_m_Source_File_Index>  (1) 
11

>  <s_m_job_name>  (1) 
glide-dock_SP_tnks2_core_const

>  <r_i_docking_score>  (1) 
-10.505060057168

>  <r_i_glide_gscore>  (1) 
-10.505060057168

>  <r_i_glide_emodel>  (1) 
-40.7333840848856

>  <index_string>  (1) 
10:0:0

$$$$
