9:0:0
     RDKit          3D

 43 46  0  0  1  0  0  0  0  0999 V2000
  -14.4430  -14.8253  -27.6796 C   0  0  0  0  0  0  0  0  0  0  0  0
  -15.0340  -15.6370  -26.6944 C   0  0  0  0  0  0  0  0  0  0  0  0
  -14.5206  -13.4323  -27.5833 C   0  0  0  0  0  0  0  0  0  0  0  0
  -15.7548  -15.0413  -25.6320 C   0  0  0  0  0  0  0  0  0  0  0  0
  -14.8481  -17.0212  -26.7557 N   0  0  0  0  0  0  0  0  0  0  0  0
  -15.2440  -12.8476  -26.5347 C   0  0  0  0  0  0  0  0  0  0  0  0
  -15.8711  -13.6411  -25.5517 C   0  0  0  0  0  0  0  0  0  0  0  0
  -16.3716  -15.9556  -24.6195 C   0  0  0  0  0  0  0  0  0  0  0  0
  -16.1301  -17.2547  -24.8164 N   0  0  0  0  0  0  0  0  0  0  0  0
  -17.0537  -15.5725  -23.6782 O   0  0  0  0  0  0  0  0  0  0  0  0
  -15.3699  -17.7952  -25.8491 C   0  0  0  0  0  0  0  0  0  0  0  0
  -15.2049  -19.2708  -25.9291 C   0  0  0  0  0  0  0  0  0  0  0  0
  -15.4503  -20.1089  -24.8189 C   0  0  0  0  0  0  0  0  0  0  0  0
  -15.2499  -21.4987  -24.9210 C   0  0  0  0  0  0  0  0  0  0  0  0
  -14.7856  -22.0637  -26.1255 C   0  0  0  0  0  0  0  0  0  0  0  0
  -14.5583  -21.2181  -27.2291 C   0  0  0  0  0  0  0  0  0  0  0  0
  -14.7814  -19.8459  -27.1389 C   0  0  0  0  0  0  0  0  0  0  0  0
  -13.7475  -15.3805  -28.6998 F   0  0  0  0  0  0  0  0  0  0  0  0
  -15.3272  -11.5121  -26.4852 F   0  0  0  0  0  0  0  0  0  0  0  0
  -14.5065  -23.5552  -26.2283 C   0  0  0  0  0  0  0  0  0  0  0  0
  -15.4748  -24.2494  -27.2083 C   0  0  0  0  0  0  0  0  0  0  0  0
  -15.1176  -25.7309  -27.4291 C   0  0  0  0  0  0  0  0  0  0  0  0
  -13.7076  -25.8773  -27.8504 N   0  0  0  0  0  0  0  0  0  0  0  0
  -12.7590  -25.3057  -26.8744 C   0  0  0  0  0  0  0  0  0  0  0  0
  -13.0479  -23.8147  -26.6542 C   0  0  0  0  0  0  0  0  0  0  0  0
  -14.0449  -12.8059  -28.3243 H   0  0  0  0  0  0  0  0  0  0  0  0
  -16.4247  -13.1798  -24.7470 H   0  0  0  0  0  0  0  0  0  0  0  0
  -16.5777  -17.8994  -24.1774 H   0  0  0  0  0  0  0  0  0  0  0  0
  -15.7848  -19.7059  -23.8756 H   0  0  0  0  0  0  0  0  0  0  0  0
  -15.4309  -22.1242  -24.0619 H   0  0  0  0  0  0  0  0  0  0  0  0
  -14.1838  -21.5727  -28.1702 H   0  0  0  0  0  0  0  0  0  0  0  0
  -14.5768  -19.2370  -28.0072 H   0  0  0  0  0  0  0  0  0  0  0  0
  -14.6536  -23.9839  -25.2373 H   0  0  0  0  0  0  0  0  0  0  0  0
  -16.4949  -24.1685  -26.8323 H   0  0  0  0  0  0  0  0  0  0  0  0
  -15.4553  -23.7375  -28.1721 H   0  0  0  0  0  0  0  0  0  0  0  0
  -15.2775  -26.3006  -26.5127 H   0  0  0  0  0  0  0  0  0  0  0  0
  -15.7644  -26.1652  -28.1937 H   0  0  0  0  0  0  0  0  0  0  0  0
  -13.5012  -26.8610  -27.9592 H   0  0  0  0  0  0  0  0  0  0  0  0
  -12.8380  -25.8496  -25.9384 H   0  0  0  0  0  0  0  0  0  0  0  0
  -11.7421  -25.4452  -27.2360 H   0  0  0  0  0  0  0  0  0  0  0  0
  -12.8246  -23.2869  -27.5802 H   0  0  0  0  0  0  0  0  0  0  0  0
  -12.3707  -23.4152  -25.9032 H   0  0  0  0  0  0  0  0  0  0  0  0
  -13.5802  -25.4153  -28.7369 H   0  0  0  0  0  0  0  0  0  0  0  0
  1  2  2  0
  1  3  1  0
  1 18  1  0
  2  4  1  0
  2  5  1  0
  3  6  2  0
  3 26  1  0
  4  7  2  0
  4  8  1  0
  5 11  2  0
  6  7  1  0
  6 19  1  0
  7 27  1  0
  8  9  1  0
  8 10  2  0
  9 11  1  0
  9 28  1  0
 11 12  1  0
 12 13  2  0
 12 17  1  0
 13 14  1  0
 13 29  1  0
 14 15  2  0
 14 30  1  0
 15 16  1  0
 15 20  1  0
 16 17  2  0
 16 31  1  0
 17 32  1  0
 20 21  1  0
 20 25  1  0
 20 33  1  0
 21 22  1  0
 21 34  1  0
 21 35  1  0
 22 23  1  0
 22 36  1  0
 22 37  1  0
 23 24  1  0
 23 38  1  0
 23 43  1  0
 24 25  1  0
 24 39  1  0
 24 40  1  0
 25 41  1  0
 25 42  1  0
M  CHG  1  23   1
M  END
>  <s_m_entry_id>  (1) 
506

>  <Name>  (1) 
8c

>  <IC50[nM]>  (1) 
38

>  <s_m_Source_Path>  (1) 
/projects/mai/users/kmzp800_harry/pmx_colab/docking_jobs/tnks2

>  <s_m_Source_File>  (1) 
tnks2_lig.sdf

>  <i_m_Source_File_Index>  (1) 
25

>  <s_m_job_name>  (1) 
glide-dock_SP_tnks_mcs_fallabck

>  <r_i_docking_score>  (1) 
-10.0793064775496

>  <r_i_glide_gscore>  (1) 
-10.0793064775496

>  <r_i_glide_emodel>  (1) 
-44.4854815085554

>  <index_string>  (1) 
9:0:0

$$$$
