25:0:0
     RDKit          3D

 37 39  0  0  1  0  0  0  0  0999 V2000
  -14.4661  -14.7661  -27.6535 C   0  0  0  0  0  0  0  0  0  0  0  0
  -15.0428  -15.6019  -26.6726 C   0  0  0  0  0  0  0  0  0  0  0  0
  -14.5473  -13.3708  -27.5389 C   0  0  0  0  0  0  0  0  0  0  0  0
  -15.7588  -15.0156  -25.6068 C   0  0  0  0  0  0  0  0  0  0  0  0
  -14.8478  -16.9964  -26.7633 N   0  0  0  0  0  0  0  0  0  0  0  0
  -15.2418  -12.7953  -26.4628 C   0  0  0  0  0  0  0  0  0  0  0  0
  -15.8592  -13.6148  -25.4983 C   0  0  0  0  0  0  0  0  0  0  0  0
  -16.3511  -15.9402  -24.5929 C   0  0  0  0  0  0  0  0  0  0  0  0
  -16.1409  -17.2295  -24.8141 N   0  0  0  0  0  0  0  0  0  0  0  0
  -16.9085  -15.5668  -23.5969 O   0  0  0  0  0  0  0  0  0  0  0  0
  -15.3761  -17.7716  -25.8457 C   0  0  0  0  0  0  0  0  0  0  0  0
  -15.2106  -19.2513  -25.9289 C   0  0  0  0  0  0  0  0  0  0  0  0
  -15.4463  -20.0992  -24.8165 C   0  0  0  0  0  0  0  0  0  0  0  0
  -15.2095  -21.4809  -24.9110 C   0  0  0  0  0  0  0  0  0  0  0  0
  -14.7238  -22.0541  -26.1139 C   0  0  0  0  0  0  0  0  0  0  0  0
  -14.5258  -21.2024  -27.2171 C   0  0  0  0  0  0  0  0  0  0  0  0
  -14.7774  -19.8369  -27.1286 C   0  0  0  0  0  0  0  0  0  0  0  0
  -14.4133  -23.5508  -26.2089 C   0  0  0  0  0  0  0  0  0  0  0  0
  -14.1320  -23.9694  -27.5005 O   0  0  0  0  0  0  0  0  0  0  0  0
  -15.6404  -24.3670  -25.8302 C   0  0  0  0  0  0  0  0  0  0  0  0
  -13.1474  -23.8898  -25.4144 C   0  0  0  0  0  0  0  0  0  0  0  0
  -13.9125  -15.2063  -28.4758 H   0  0  0  0  0  0  0  0  0  0  0  0
  -14.0920  -12.7395  -28.2720 H   0  0  0  0  0  0  0  0  0  0  0  0
  -15.3154  -11.7155  -26.3930 H   0  0  0  0  0  0  0  0  0  0  0  0
  -16.3920  -13.1727  -24.6778 H   0  0  0  0  0  0  0  0  0  0  0  0
  -16.5795  -17.8851  -24.1869 H   0  0  0  0  0  0  0  0  0  0  0  0
  -15.7817  -19.6945  -23.8810 H   0  0  0  0  0  0  0  0  0  0  0  0
  -15.3621  -22.0897  -24.0372 H   0  0  0  0  0  0  0  0  0  0  0  0
  -14.1421  -21.5690  -28.1452 H   0  0  0  0  0  0  0  0  0  0  0  0
  -14.5890  -19.2196  -27.9903 H   0  0  0  0  0  0  0  0  0  0  0  0
  -13.9800  -24.9035  -27.5048 H   0  0  0  0  0  0  0  0  0  0  0  0
  -15.8970  -24.2226  -24.7696 H   0  0  0  0  0  0  0  0  0  0  0  0
  -15.4957  -25.4399  -25.9709 H   0  0  0  0  0  0  0  0  0  0  0  0
  -16.5178  -24.0811  -26.4103 H   0  0  0  0  0  0  0  0  0  0  0  0
  -13.2854  -23.6971  -24.3443 H   0  0  0  0  0  0  0  0  0  0  0  0
  -12.8328  -24.9337  -25.5306 H   0  0  0  0  0  0  0  0  0  0  0  0
  -12.2934  -23.2971  -25.7496 H   0  0  0  0  0  0  0  0  0  0  0  0
  1  2  2  0
  1  3  1  0
  1 22  1  0
  2  4  1  0
  2  5  1  0
  3  6  2  0
  3 23  1  0
  4  7  2  0
  4  8  1  0
  5 11  2  0
  6  7  1  0
  6 24  1  0
  7 25  1  0
  8  9  1  0
  8 10  2  0
  9 11  1  0
  9 26  1  0
 11 12  1  0
 12 13  2  0
 12 17  1  0
 13 14  1  0
 13 27  1  0
 14 15  2  0
 14 28  1  0
 15 16  1  0
 15 18  1  0
 16 17  2  0
 16 29  1  0
 17 30  1  0
 18 19  1  0
 18 20  1  0
 18 21  1  0
 19 31  1  0
 20 32  1  0
 20 33  1  0
 20 34  1  0
 21 35  1  0
 21 36  1  0
 21 37  1  0
M  END
>  <s_m_entry_id>  (1) 
467

>  <Name>  (1) 
5a

>  <IC50[nM]>  (1) 
13

>  <s_m_Source_Path>  (1) 
/projects/mai/users/kmzp800_harry/pmx_colab/docking_jobs/tnks2

>  <s_m_Source_File>  (1) 
tnks2_lig.sdf

>  <i_m_Source_File_Index>  (1) 
26

>  <s_m_job_name>  (1) 
glide-dock_SP_tnks2_core_const

>  <r_i_docking_score>  (1) 
-10.3548903550867

>  <r_i_glide_gscore>  (1) 
-10.3548903550867

>  <r_i_glide_emodel>  (1) 
-58.3827474517958

>  <index_string>  (1) 
25:0:0

$$$$
