24:0:0
     RDKit          3D

 64 68  0  0  1  0  0  0  0  0999 V2000
   -8.9808   -3.8306   16.2958 C   0  0  0  0  0  0  0  0  0  0  0  0
   -7.6344   -3.4534   16.0692 O   0  0  0  0  0  0  0  0  0  0  0  0
   -7.2163   -3.1698   14.8193 C   0  0  0  0  0  0  0  0  0  0  0  0
   -7.9477   -3.1963   13.8285 O   0  0  0  0  0  0  0  0  0  0  0  0
   -5.7752   -2.7910   14.7623 C   0  0  0  0  0  0  0  0  0  0  0  0
   -4.9662   -2.7767   15.9238 C   0  0  0  0  0  0  0  0  0  0  0  0
   -3.6141   -2.3967   15.8471 C   0  0  0  0  0  0  0  0  0  0  0  0
   -3.0528   -1.9908   14.6212 C   0  0  0  0  0  0  0  0  0  0  0  0
   -1.6913   -1.5854   14.6118 N   0  0  0  0  0  0  0  0  0  0  0  0
   -1.1228   -0.6605   13.8173 C   0  0  0  0  0  0  0  0  0  0  0  0
   -1.7567    0.0302   13.0217 O   0  0  0  0  0  0  0  0  0  0  0  0
    0.3584   -0.4485   14.0034 C   0  0  0  0  0  0  0  0  0  0  0  0
    1.1611   -1.3930   14.6863 C   0  0  0  0  0  0  0  0  0  0  0  0
    2.5452   -1.1882   14.7982 C   0  0  0  0  0  0  0  0  0  0  0  0
    3.1453   -0.0558   14.2163 C   0  0  0  0  0  0  0  0  0  0  0  0
    2.3763    0.9150   13.5349 C   0  0  0  0  0  0  0  0  0  0  0  0
    0.9787    0.6951   13.4435 C   0  0  0  0  0  0  0  0  0  0  0  0
    3.0209    2.1129   12.9361 C   0  0  0  0  0  0  0  0  0  0  0  0
    4.2537    2.5772   13.3399 C   0  0  0  0  0  0  0  0  0  0  0  0
    4.7840    3.6368   12.6703 N   0  0  0  0  0  0  0  0  0  0  0  0
    5.9880    4.3035   12.8044 C   0  0  0  0  0  0  0  0  0  0  0  0
    6.0046    5.2679   11.8337 C   0  0  0  0  0  0  0  0  0  0  0  0
    4.8301    5.2552   11.0948 N   0  0  0  0  0  0  0  0  0  0  0  0
    4.0990    4.2624   11.6010 C   0  0  0  0  0  0  0  0  0  0  0  0
    2.8181    3.7348   11.2891 C   0  0  0  0  0  0  0  0  0  0  0  0
    2.0677    4.3004   10.2531 N   0  0  0  0  0  0  0  0  0  0  0  0
    0.6739    4.2849   10.1504 C   0  0  0  0  0  0  0  0  0  0  0  0
    0.0661    3.9731    8.9247 C   0  0  0  0  0  0  0  0  0  0  0  0
   -1.3341    3.8909    8.8386 C   0  0  0  0  0  0  0  0  0  0  0  0
   -2.1512    4.1669    9.9659 C   0  0  0  0  0  0  0  0  0  0  0  0
   -3.5299    4.1086    9.9421 O   0  0  0  0  0  0  0  0  0  0  0  0
   -4.1751    3.8882    8.6959 C   0  0  0  0  0  0  0  0  0  0  0  0
   -1.5429    4.5257   11.1912 C   0  0  0  0  0  0  0  0  0  0  0  0
   -2.3707    4.8155   12.2574 O   0  0  0  0  0  0  0  0  0  0  0  0
   -1.7831    5.3970   13.4137 C   0  0  0  0  0  0  0  0  0  0  0  0
   -0.1292    4.5733   11.2721 C   0  0  0  0  0  0  0  0  0  0  0  0
    2.3151    2.7133   11.9209 N   0  0  0  0  0  0  0  0  0  0  0  0
   -3.8459   -2.0382   13.4506 C   0  0  0  0  0  0  0  0  0  0  0  0
   -5.1952   -2.4330   13.5231 C   0  0  0  0  0  0  0  0  0  0  0  0
   -9.1424   -3.9956   17.3609 H   0  0  0  0  0  0  0  0  0  0  0  0
   -9.2183   -4.7552   15.7688 H   0  0  0  0  0  0  0  0  0  0  0  0
   -9.6661   -3.0500   15.9645 H   0  0  0  0  0  0  0  0  0  0  0  0
   -5.3652   -3.0572   16.8902 H   0  0  0  0  0  0  0  0  0  0  0  0
   -3.0211   -2.3997   16.7517 H   0  0  0  0  0  0  0  0  0  0  0  0
   -1.0964   -1.9911   15.3250 H   0  0  0  0  0  0  0  0  0  0  0  0
    0.7416   -2.2847   15.1270 H   0  0  0  0  0  0  0  0  0  0  0  0
    3.1535   -1.9095   15.3227 H   0  0  0  0  0  0  0  0  0  0  0  0
    4.2142    0.0548   14.3050 H   0  0  0  0  0  0  0  0  0  0  0  0
    0.3657    1.4158   12.9231 H   0  0  0  0  0  0  0  0  0  0  0  0
    4.8443    2.1586   14.1477 H   0  0  0  0  0  0  0  0  0  0  0  0
    6.7108    4.0058   13.5478 H   0  0  0  0  0  0  0  0  0  0  0  0
    6.7845    5.9823   11.6103 H   0  0  0  0  0  0  0  0  0  0  0  0
    2.5645    4.9713    9.6800 H   0  0  0  0  0  0  0  0  0  0  0  0
    0.6702    3.7491    8.0567 H   0  0  0  0  0  0  0  0  0  0  0  0
   -1.7595    3.6041    7.8890 H   0  0  0  0  0  0  0  0  0  0  0  0
   -5.2546    3.9337    8.8402 H   0  0  0  0  0  0  0  0  0  0  0  0
   -3.9139    4.6557    7.9667 H   0  0  0  0  0  0  0  0  0  0  0  0
   -3.9396    2.9034    8.2896 H   0  0  0  0  0  0  0  0  0  0  0  0
   -2.5552    5.6046   14.1533 H   0  0  0  0  0  0  0  0  0  0  0  0
   -1.0587    4.7249   13.8735 H   0  0  0  0  0  0  0  0  0  0  0  0
   -1.2884    6.3395   13.1764 H   0  0  0  0  0  0  0  0  0  0  0  0
    0.3710    4.8270   12.1937 H   0  0  0  0  0  0  0  0  0  0  0  0
   -3.4293   -1.7754   12.4915 H   0  0  0  0  0  0  0  0  0  0  0  0
   -5.7803   -2.4531   12.6162 H   0  0  0  0  0  0  0  0  0  0  0  0
  1  2  1  0
  1 40  1  0
  1 41  1  0
  1 42  1  0
  2  3  1  0
  3  4  2  0
  3  5  1  0
  5  6  2  0
  5 39  1  0
  6  7  1  0
  6 43  1  0
  7  8  2  0
  7 44  1  0
  8  9  1  0
  8 38  1  0
  9 10  1  0
  9 45  1  0
 10 11  2  0
 10 12  1  0
 12 13  2  0
 12 17  1  0
 13 14  1  0
 13 46  1  0
 14 15  2  0
 14 47  1  0
 15 16  1  0
 15 48  1  0
 16 17  2  0
 16 18  1  0
 17 49  1  0
 18 19  2  0
 18 37  1  0
 19 20  1  0
 19 50  1  0
 20 21  1  0
 20 24  1  0
 21 22  2  0
 21 51  1  0
 22 23  1  0
 22 52  1  0
 23 24  2  0
 24 25  1  0
 25 26  1  0
 25 37  2  0
 26 27  1  0
 26 53  1  0
 27 28  2  0
 27 36  1  0
 28 29  1  0
 28 54  1  0
 29 30  2  0
 29 55  1  0
 30 31  1  0
 30 33  1  0
 31 32  1  0
 32 56  1  0
 32 57  1  0
 32 58  1  0
 33 34  1  0
 33 36  2  0
 34 35  1  0
 35 59  1  0
 35 60  1  0
 35 61  1  0
 36 62  1  0
 38 39  2  0
 38 63  1  0
 39 64  1  0
M  END
>  <s_m_entry_id>  (1) 
704

>  <IC50[nM]>  (1) 
15.2

>  <s_m_Source_Path>  (1) 
/projects/mai/users/kmzp800_harry/pmx_colab/docking_jobs/syk

>  <s_m_Source_File>  (1) 
tnks2_lig.sdf

>  <i_m_Source_File_Index>  (1) 
25

>  <s_m_job_name>  (1) 
glide-dock_SP_tnks2_no_const

>  <r_i_docking_score>  (1) 
-6.17229439813744

>  <r_i_glide_gscore>  (1) 
-6.17229439813744

>  <r_i_glide_emodel>  (1) 
-74.0478697593356

>  <index_string>  (1) 
24:0:0

$$$$
