13:0:0
     RDKit          3D

 42 43  0  0  1  0  0  0  0  0999 V2000
   41.3979   17.4863   11.9033 O   0  0  0  0  0  0  0  0  0  0  0  0
   40.6157   17.4071   12.8802 C   0  0  0  0  0  0  0  0  0  0  0  0
   39.4591   17.8863   12.8939 O   0  0  0  0  0  0  0  0  0  0  0  0
   41.0874   16.6981   14.1575 C   0  0  0  0  0  0  0  0  0  0  0  0
   42.2852   15.9570   13.9380 O   0  0  0  0  0  0  0  0  0  0  0  0
   42.5157   14.9822   14.8504 C   0  0  0  0  0  0  0  0  0  0  0  0
   41.9820   13.6729   14.7651 C   0  0  0  0  0  0  0  0  0  0  0  0
   40.8726   13.2439   13.2941 Br  0  0  0  0  0  0  0  0  0  0  0  0
   42.3521   12.8033   15.7656 C   0  0  0  0  0  0  0  0  0  0  0  0
   43.3838   13.6403   16.8957 S   0  0  0  0  0  0  0  0  0  0  0  0
   43.2998   15.1220   15.9649 C   0  0  0  0  0  0  0  0  0  0  0  0
   44.0274   16.2863   16.4692 C   0  0  0  0  0  0  0  0  0  0  0  0
   44.1838   17.2499   15.6927 O   0  0  0  0  0  0  0  0  0  0  0  0
   44.4521   16.3074   17.6442 O   0  0  0  0  0  0  0  0  0  0  0  0
   42.0261   11.3929   16.0066 C   0  0  0  0  0  0  0  0  0  0  0  0
   42.9160   10.5283   16.6867 C   0  0  0  0  0  0  0  0  0  0  0  0
   42.5833    9.1744   16.8993 C   0  0  0  0  0  0  0  0  0  0  0  0
   41.3744    8.6499   16.4024 C   0  0  0  0  0  0  0  0  0  0  0  0
   40.4813    9.4946   15.7062 C   0  0  0  0  0  0  0  0  0  0  0  0
   40.8058   10.8546   15.5534 C   0  0  0  0  0  0  0  0  0  0  0  0
   39.2400    9.0864   15.1498 N   0  0  0  0  0  0  0  0  0  0  0  0
   38.8010    7.8555   14.8494 C   0  0  0  0  0  0  0  0  0  0  0  0
   39.4180    6.8086   15.0458 O   0  0  0  0  0  0  0  0  0  0  0  0
   37.5807    7.9057   14.2944 N   0  0  0  0  0  0  0  0  0  0  0  0
   36.8019    6.7579   13.8405 C   0  0  0  0  0  0  0  0  0  0  0  0
   35.6661    7.2531   12.9364 C   0  0  0  0  0  0  0  0  0  0  0  0
   36.2454    5.9596   15.0338 C   0  0  0  0  0  0  0  0  0  0  0  0
   41.2606   17.4447   14.9341 H   0  0  0  0  0  0  0  0  0  0  0  0
   40.2816   16.0510   14.5075 H   0  0  0  0  0  0  0  0  0  0  0  0
   43.8650   10.8936   17.0514 H   0  0  0  0  0  0  0  0  0  0  0  0
   43.2684    8.5299   17.4280 H   0  0  0  0  0  0  0  0  0  0  0  0
   41.1533    7.6065   16.5673 H   0  0  0  0  0  0  0  0  0  0  0  0
   40.0944   11.4960   15.0657 H   0  0  0  0  0  0  0  0  0  0  0  0
   38.6489    9.8496   14.8462 H   0  0  0  0  0  0  0  0  0  0  0  0
   37.1632    8.8136   14.1519 H   0  0  0  0  0  0  0  0  0  0  0  0
   37.4528    6.1071   13.2519 H   0  0  0  0  0  0  0  0  0  0  0  0
   35.0909    6.4187   12.5339 H   0  0  0  0  0  0  0  0  0  0  0  0
   34.9836    7.8938   13.4916 H   0  0  0  0  0  0  0  0  0  0  0  0
   36.0476    7.8335   12.0972 H   0  0  0  0  0  0  0  0  0  0  0  0
   35.6472    5.1142   14.6906 H   0  0  0  0  0  0  0  0  0  0  0  0
   37.0464    5.5558   15.6547 H   0  0  0  0  0  0  0  0  0  0  0  0
   35.6126    6.5810   15.6688 H   0  0  0  0  0  0  0  0  0  0  0  0
  1  2  2  0
  2  3  1  0
  2  4  1  0
  4  5  1  0
  4 28  1  0
  4 29  1  0
  5  6  1  0
  6 11  2  0
  6  7  1  0
  7  8  1  0
  7  9  2  0
  9 10  1  0
  9 15  1  0
 10 11  1  0
 11 12  1  0
 12 13  2  0
 12 14  1  0
 15 20  1  0
 15 16  2  0
 16 17  1  0
 16 30  1  0
 17 18  2  0
 17 31  1  0
 18 19  1  0
 18 32  1  0
 19 20  2  0
 19 21  1  0
 20 33  1  0
 21 22  1  0
 21 34  1  0
 22 23  2  0
 22 24  1  0
 24 25  1  0
 24 35  1  0
 25 26  1  0
 25 27  1  0
 25 36  1  0
 26 37  1  0
 26 38  1  0
 26 39  1  0
 27 40  1  0
 27 41  1  0
 27 42  1  0
M  CHG  2   3  -1  14  -1
M  END
>  <s_m_entry_id>  (1) 
466

>  <i_f3d_flags>  (1) 
0

>  <r_epik_Ionization_Penalty>  (1) 
  0.0001

>  <r_epik_State_Penalty>  (1) 
  0.0000

>  <i_epik_Tot_Q>  (1) 
-2

>  <s_m_job_name>  (1) 
glide-dock_SP_ptp1b_no_cons

>  <r_lp_tautomer_probability>  (1) 
1

>  <r_i_docking_score>  (1) 
-8.25788912974268

>  <r_i_glide_gscore>  (1) 
-8.25788912974268

>  <r_i_glide_emodel>  (1) 
-109.467444239893

>  <index_string>  (1) 
13:0:0

$$$$
