36:0:0
     RDKit          3D

 53 58  0  0  1  0  0  0  0  0999 V2000
   -6.3060   -2.2724   15.1795 C   0  0  0  0  0  0  0  0  0  0  0  0
   -4.8298   -1.9181   15.4196 C   0  0  0  0  0  0  0  0  0  0  0  0
   -3.9231   -2.7020   14.4567 C   0  0  0  0  0  0  0  0  0  0  0  0
   -4.4265   -2.5474   13.0076 C   0  0  0  0  0  0  0  0  0  0  0  0
   -5.9265   -2.8589   12.9138 C   0  0  0  0  0  0  0  0  0  0  0  0
   -6.6403   -2.0179   13.8167 O   0  0  0  0  0  0  0  0  0  0  0  0
   -2.4604   -2.3182   14.6329 C   0  0  0  0  0  0  0  0  0  0  0  0
   -1.9336   -1.1447   14.0510 C   0  0  0  0  0  0  0  0  0  0  0  0
   -0.5828   -0.7984   14.2343 C   0  0  0  0  0  0  0  0  0  0  0  0
    0.2633   -1.6132   15.0194 C   0  0  0  0  0  0  0  0  0  0  0  0
    1.6087   -1.3292   15.2946 N   0  0  0  0  0  0  0  0  0  0  0  0
    2.5295   -0.4342   14.7276 C   0  0  0  0  0  0  0  0  0  0  0  0
    2.2007    0.3662   13.7500 N   0  0  0  0  0  0  0  0  0  0  0  0
    3.1306    1.2604   13.2518 C   0  0  0  0  0  0  0  0  0  0  0  0
    4.4364    1.2861   13.6913 C   0  0  0  0  0  0  0  0  0  0  0  0
    4.7690    0.4706   14.7242 N   0  0  0  0  0  0  0  0  0  0  0  0
    5.9093    0.3748   15.4979 C   0  0  0  0  0  0  0  0  0  0  0  0
    5.5925   -0.4921   16.5118 C   0  0  0  0  0  0  0  0  0  0  0  0
    4.3527   -1.0654   16.3269 N   0  0  0  0  0  0  0  0  0  0  0  0
    3.8308   -0.4201   15.2910 C   0  0  0  0  0  0  0  0  0  0  0  0
    2.6436    2.2466   12.2540 C   0  0  0  0  0  0  0  0  0  0  0  0
    3.5154    2.8039   11.2829 C   0  0  0  0  0  0  0  0  0  0  0  0
    3.0615    3.7269   10.3188 C   0  0  0  0  0  0  0  0  0  0  0  0
    1.7133    4.1432   10.3017 C   0  0  0  0  0  0  0  0  0  0  0  0
    0.8873    5.0148    9.5189 C   0  0  0  0  0  0  0  0  0  0  0  0
   -0.3496    5.0327    9.9562 N   0  0  0  0  0  0  0  0  0  0  0  0
   -0.3686    4.1945   11.0237 N   0  0  0  0  0  0  0  0  0  0  0  0
    0.8528    3.6047   11.2938 C   0  0  0  0  0  0  0  0  0  0  0  0
    1.2971    2.6798   12.2548 C   0  0  0  0  0  0  0  0  0  0  0  0
   -0.2720   -2.7746   15.6140 C   0  0  0  0  0  0  0  0  0  0  0  0
   -1.6188   -3.1294   15.4204 C   0  0  0  0  0  0  0  0  0  0  0  0
   -6.5070   -3.3150   15.4327 H   0  0  0  0  0  0  0  0  0  0  0  0
   -6.9438   -1.6640   15.8204 H   0  0  0  0  0  0  0  0  0  0  0  0
   -4.5563   -2.1350   16.4535 H   0  0  0  0  0  0  0  0  0  0  0  0
   -4.6874   -0.8463   15.2813 H   0  0  0  0  0  0  0  0  0  0  0  0
   -4.0131   -3.7592   14.7125 H   0  0  0  0  0  0  0  0  0  0  0  0
   -4.2736   -1.5336   12.6414 H   0  0  0  0  0  0  0  0  0  0  0  0
   -3.8621   -3.1985   12.3396 H   0  0  0  0  0  0  0  0  0  0  0  0
   -6.1255   -3.9091   13.1360 H   0  0  0  0  0  0  0  0  0  0  0  0
   -6.2821   -2.6756   11.8996 H   0  0  0  0  0  0  0  0  0  0  0  0
   -2.5544   -0.4895   13.4615 H   0  0  0  0  0  0  0  0  0  0  0  0
   -0.2331    0.1137   13.7809 H   0  0  0  0  0  0  0  0  0  0  0  0
    2.0291   -1.9163   16.0040 H   0  0  0  0  0  0  0  0  0  0  0  0
    5.1885    1.9893   13.3524 H   0  0  0  0  0  0  0  0  0  0  0  0
    6.7655    1.0013   15.3016 H   0  0  0  0  0  0  0  0  0  0  0  0
    6.0991   -0.7346   17.4251 H   0  0  0  0  0  0  0  0  0  0  0  0
    4.5501    2.4976   11.2480 H   0  0  0  0  0  0  0  0  0  0  0  0
    3.7495    4.1148    9.5831 H   0  0  0  0  0  0  0  0  0  0  0  0
    1.1601    5.6178    8.6652 H   0  0  0  0  0  0  0  0  0  0  0  0
   -1.2232    4.0504   11.5412 H   0  0  0  0  0  0  0  0  0  0  0  0
    0.6042    2.2991   12.9892 H   0  0  0  0  0  0  0  0  0  0  0  0
    0.3507   -3.4042   16.2355 H   0  0  0  0  0  0  0  0  0  0  0  0
   -2.0014   -4.0204   15.8973 H   0  0  0  0  0  0  0  0  0  0  0  0
  1  2  1  0
  1  6  1  0
  1 32  1  0
  1 33  1  0
  2  3  1  0
  2 34  1  0
  2 35  1  0
  3  4  1  0
  3  7  1  0
  3 36  1  0
  4  5  1  0
  4 37  1  0
  4 38  1  0
  5  6  1  0
  5 39  1  0
  5 40  1  0
  7  8  2  0
  7 31  1  0
  8  9  1  0
  8 41  1  0
  9 10  2  0
  9 42  1  0
 10 11  1  0
 10 30  1  0
 11 12  1  0
 11 43  1  0
 12 13  2  0
 12 20  1  0
 13 14  1  0
 14 15  2  0
 14 21  1  0
 15 16  1  0
 15 44  1  0
 16 17  1  0
 16 20  1  0
 17 18  2  0
 17 45  1  0
 18 19  1  0
 18 46  1  0
 19 20  2  0
 21 22  2  0
 21 29  1  0
 22 23  1  0
 22 47  1  0
 23 24  2  0
 23 48  1  0
 24 25  1  0
 24 28  1  0
 25 26  2  0
 25 49  1  0
 26 27  1  0
 27 28  1  0
 27 50  1  0
 28 29  2  0
 29 51  1  0
 30 31  2  0
 30 52  1  0
 31 53  1  0
M  END
>  <s_m_entry_id>  (1) 
1023

>  <IC50[nM]>  (1) 
3.8

>  <s_m_Source_Path>  (1) 
/projects/mai/users/kmzp800_harry/pmx_colab/docking_jobs/syk

>  <s_m_Source_File>  (1) 
tnks2_lig.sdf

>  <i_m_Source_File_Index>  (1) 
37

>  <s_m_job_name>  (1) 
glide-dock_SP_tnks2_core_const

>  <r_i_docking_score>  (1) 
-7.17687467441454

>  <r_i_glide_gscore>  (1) 
-7.17687467441454

>  <r_i_glide_emodel>  (1) 
-50.0800267960931

>  <index_string>  (1) 
36:0:0

$$$$
