13:0:0
     RDKit          3D

 48 51  0  0  1  0  0  0  0  0999 V2000
  -14.3259  -14.7197  -27.8434 C   0  0  0  0  0  0  0  0  0  0  0  0
  -14.9185  -15.5697  -26.8606 C   0  0  0  0  0  0  0  0  0  0  0  0
  -14.4482  -13.3328  -27.7519 C   0  0  0  0  0  0  0  0  0  0  0  0
  -15.6481  -14.9611  -25.8029 C   0  0  0  0  0  0  0  0  0  0  0  0
  -14.7626  -16.9785  -26.8956 N   0  0  0  0  0  0  0  0  0  0  0  0
  -15.1691  -12.7533  -26.7209 C   0  0  0  0  0  0  0  0  0  0  0  0
  -15.7817  -13.5532  -25.7350 C   0  0  0  0  0  0  0  0  0  0  0  0
  -16.2250  -15.8551  -24.7452 C   0  0  0  0  0  0  0  0  0  0  0  0
  -16.0056  -17.1639  -24.9095 N   0  0  0  0  0  0  0  0  0  0  0  0
  -16.8480  -15.4306  -23.7818 O   0  0  0  0  0  0  0  0  0  0  0  0
  -15.2482  -17.7297  -25.9386 C   0  0  0  0  0  0  0  0  0  0  0  0
  -15.0198  -19.2122  -25.9064 C   0  0  0  0  0  0  0  0  0  0  0  0
  -14.8482  -19.9610  -27.0901 C   0  0  0  0  0  0  0  0  0  0  0  0
  -14.6278  -21.3512  -27.0287 C   0  0  0  0  0  0  0  0  0  0  0  0
  -14.5208  -22.0116  -25.7894 C   0  0  0  0  0  0  0  0  0  0  0  0
  -14.6806  -21.2655  -24.6043 C   0  0  0  0  0  0  0  0  0  0  0  0
  -14.9501  -19.8840  -24.6645 C   0  0  0  0  0  0  0  0  0  0  0  0
  -15.2482  -11.4128  -26.7386 F   0  0  0  0  0  0  0  0  0  0  0  0
  -14.2347  -23.3843  -25.7304 N   0  0  0  0  0  0  0  0  0  0  0  0
  -13.0075  -23.8107  -25.0644 C   0  0  0  0  0  0  0  0  0  0  0  0
  -12.1095  -24.6404  -26.0100 C   0  0  0  0  0  0  0  0  0  0  0  0
  -12.8652  -25.6651  -26.7684 N   0  0  0  0  0  0  0  0  0  0  0  0
  -14.0019  -25.0754  -27.5201 C   0  0  0  0  0  0  0  0  0  0  0  0
  -14.9598  -24.3232  -26.5799 C   0  0  0  0  0  0  0  0  0  0  0  0
  -11.9878  -26.4957  -27.6222 C   0  0  0  0  0  0  0  0  0  0  0  0
  -13.9897  -12.6809  -28.4830 H   0  0  0  0  0  0  0  0  0  0  0  0
  -16.3351  -13.0884  -24.9307 H   0  0  0  0  0  0  0  0  0  0  0  0
  -16.4200  -17.7815  -24.2248 H   0  0  0  0  0  0  0  0  0  0  0  0
  -14.8484  -19.4714  -28.0529 H   0  0  0  0  0  0  0  0  0  0  0  0
  -14.4811  -21.9036  -27.9386 H   0  0  0  0  0  0  0  0  0  0  0  0
  -14.6071  -21.7518  -23.6421 H   0  0  0  0  0  0  0  0  0  0  0  0
  -15.0852  -19.3452  -23.7403 H   0  0  0  0  0  0  0  0  0  0  0  0
  -12.4482  -22.9400  -24.7207 H   0  0  0  0  0  0  0  0  0  0  0  0
  -13.2592  -24.3727  -24.1668 H   0  0  0  0  0  0  0  0  0  0  0  0
  -11.3136  -25.1264  -25.4409 H   0  0  0  0  0  0  0  0  0  0  0  0
  -11.6482  -23.9731  -26.7382 H   0  0  0  0  0  0  0  0  0  0  0  0
  -14.5483  -25.8586  -28.0472 H   0  0  0  0  0  0  0  0  0  0  0  0
  -13.6141  -24.3939  -28.2782 H   0  0  0  0  0  0  0  0  0  0  0  0
  -15.4863  -25.0303  -25.9387 H   0  0  0  0  0  0  0  0  0  0  0  0
  -15.7315  -23.8131  -27.1581 H   0  0  0  0  0  0  0  0  0  0  0  0
  -11.5094  -25.8950  -28.3971 H   0  0  0  0  0  0  0  0  0  0  0  0
  -11.2056  -26.9688  -27.0270 H   0  0  0  0  0  0  0  0  0  0  0  0
  -12.5584  -27.2881  -28.1081 H   0  0  0  0  0  0  0  0  0  0  0  0
  -13.2659  -26.2860  -26.0807 H   0  0  0  0  0  0  0  0  0  0  0  0
  -13.5116  -15.1875  -29.0194 C   0  0  0  0  0  0  0  0  0  0  0  0
  -14.0482  -15.9727  -29.5131 H   0  0  0  0  0  0  0  0  0  0  0  0
  -13.3548  -14.3989  -29.7561 H   0  0  0  0  0  0  0  0  0  0  0  0
  -12.5367  -15.5727  -28.7383 H   0  0  0  0  0  0  0  0  0  0  0  0
  1  2  2  0
  1  3  1  0
  1 45  1  0
  2  4  1  0
  2  5  1  0
  3  6  2  0
  3 26  1  0
  4  7  2  0
  4  8  1  0
  5 11  2  0
  6  7  1  0
  6 18  1  0
  7 27  1  0
  8  9  1  0
  8 10  2  0
  9 11  1  0
  9 28  1  0
 11 12  1  0
 12 13  2  0
 12 17  1  0
 13 14  1  0
 13 29  1  0
 14 15  2  0
 14 30  1  0
 15 16  1  0
 15 19  1  0
 16 17  2  0
 16 31  1  0
 17 32  1  0
 19 20  1  0
 19 24  1  0
 20 21  1  0
 20 33  1  0
 20 34  1  0
 21 22  1  0
 21 35  1  0
 21 36  1  0
 22 23  1  0
 22 25  1  0
 22 44  1  0
 23 24  1  0
 23 37  1  0
 23 38  1  0
 24 39  1  0
 24 40  1  0
 25 41  1  0
 25 42  1  0
 25 43  1  0
 45 46  1  0
 45 47  1  0
 45 48  1  0
M  CHG  1  22   1
M  END
>  <s_m_entry_id>  (1) 
428

>  <Name>  (1) 
8b

>  <IC50[nM]>  (1) 
1.8

>  <s_m_Source_Path>  (1) 
/projects/mai/users/kmzp800_harry/pmx_colab/docking_jobs/tnks2

>  <s_m_Source_File>  (1) 
tnks2_lig.sdf

>  <i_m_Source_File_Index>  (1) 
14

>  <s_m_job_name>  (1) 
glide-dock_SP_tnks2_no_cons

>  <r_i_docking_score>  (1) 
-10.233635601305

>  <r_i_glide_gscore>  (1) 
-10.233635601305

>  <r_i_glide_emodel>  (1) 
-59.861904401727

>  <index_string>  (1) 
13:0:0

$$$$
