16:0:0
     RDKit          3D

 37 39  0  0  1  0  0  0  0  0999 V2000
  -14.1845  -15.2925  -27.9791 C   0  0  0  0  0  0  0  0  0  0  0  0
  -14.8482  -15.9403  -26.9192 C   0  0  0  0  0  0  0  0  0  0  0  0
  -14.2149  -13.8963  -28.0983 C   0  0  0  0  0  0  0  0  0  0  0  0
  -15.5629  -15.2038  -25.9561 C   0  0  0  0  0  0  0  0  0  0  0  0
  -14.7120  -17.3188  -26.8213 N   0  0  0  0  0  0  0  0  0  0  0  0
  -14.9079  -13.1479  -27.1386 C   0  0  0  0  0  0  0  0  0  0  0  0
  -15.5944  -13.7976  -26.0974 C   0  0  0  0  0  0  0  0  0  0  0  0
  -16.1881  -15.9835  -24.8207 C   0  0  0  0  0  0  0  0  0  0  0  0
  -15.9705  -17.3051  -24.8451 N   0  0  0  0  0  0  0  0  0  0  0  0
  -16.8482  -15.4855  -23.9189 O   0  0  0  0  0  0  0  0  0  0  0  0
  -15.2614  -17.9733  -25.8451 C   0  0  0  0  0  0  0  0  0  0  0  0
  -15.1920  -19.4474  -25.8680 C   0  0  0  0  0  0  0  0  0  0  0  0
  -14.8482  -20.0761  -27.0776 C   0  0  0  0  0  0  0  0  0  0  0  0
  -14.7649  -21.4605  -27.1386 C   0  0  0  0  0  0  0  0  0  0  0  0
  -15.0851  -22.2547  -26.0405 C   0  0  0  0  0  0  0  0  0  0  0  0
  -15.4204  -21.6307  -24.8162 C   0  0  0  0  0  0  0  0  0  0  0  0
  -15.4670  -20.2277  -24.7270 C   0  0  0  0  0  0  0  0  0  0  0  0
  -15.0437  -23.7575  -26.2210 C   0  0  0  0  0  0  0  0  0  0  0  0
  -15.6482  -24.3727  -25.1386 O   0  0  0  0  0  0  0  0  0  0  0  0
  -13.5870  -24.2418  -26.3386 C   0  0  0  0  0  0  0  0  0  0  0  0
  -15.8946  -24.2405  -27.4054 C   0  0  0  0  0  0  0  0  0  0  0  0
  -16.4482  -12.8068  -25.0268 Cl  0  0  0  0  0  0  0  0  0  0  0  0
  -13.6482  -15.8740  -28.7125 H   0  0  0  0  0  0  0  0  0  0  0  0
  -13.6990  -13.4011  -28.9082 H   0  0  0  0  0  0  0  0  0  0  0  0
  -14.9319  -12.0698  -27.2165 H   0  0  0  0  0  0  0  0  0  0  0  0
  -16.4139  -17.8541  -24.1209 H   0  0  0  0  0  0  0  0  0  0  0  0
  -14.6134  -19.5166  -27.9718 H   0  0  0  0  0  0  0  0  0  0  0  0
  -14.4482  -21.9182  -28.0460 H   0  0  0  0  0  0  0  0  0  0  0  0
  -15.6482  -22.2157  -23.9386 H   0  0  0  0  0  0  0  0  0  0  0  0
  -15.7254  -19.7688  -23.7841 H   0  0  0  0  0  0  0  0  0  0  0  0
  -15.6482  -25.3098  -25.2653 H   0  0  0  0  0  0  0  0  0  0  0  0
  -13.0839  -23.7921  -27.1949 H   0  0  0  0  0  0  0  0  0  0  0  0
  -13.5285  -25.3226  -26.4647 H   0  0  0  0  0  0  0  0  0  0  0  0
  -13.0117  -23.9796  -25.4491 H   0  0  0  0  0  0  0  0  0  0  0  0
  -15.4824  -23.8970  -28.3453 H   0  0  0  0  0  0  0  0  0  0  0  0
  -15.9300  -25.3295  -27.4598 H   0  0  0  0  0  0  0  0  0  0  0  0
  -16.9206  -23.8771  -27.3345 H   0  0  0  0  0  0  0  0  0  0  0  0
  1  2  2  0
  1  3  1  0
  1 23  1  0
  2  4  1  0
  2  5  1  0
  3  6  2  0
  3 24  1  0
  4  7  2  0
  4  8  1  0
  5 11  2  0
  6  7  1  0
  6 25  1  0
  7 22  1  0
  8  9  1  0
  8 10  2  0
  9 11  1  0
  9 26  1  0
 11 12  1  0
 12 13  2  0
 12 17  1  0
 13 14  1  0
 13 27  1  0
 14 15  2  0
 14 28  1  0
 15 16  1  0
 15 18  1  0
 16 17  2  0
 16 29  1  0
 17 30  1  0
 18 19  1  0
 18 20  1  0
 18 21  1  0
 19 31  1  0
 20 32  1  0
 20 33  1  0
 20 34  1  0
 21 35  1  0
 21 36  1  0
 21 37  1  0
M  END
>  <s_m_entry_id>  (1) 
431

>  <Name>  (1) 
5c

>  <IC50[nM]>  (1) 
50

>  <s_m_Source_Path>  (1) 
/projects/mai/users/kmzp800_harry/pmx_colab/docking_jobs/tnks2

>  <s_m_Source_File>  (1) 
tnks2_lig.sdf

>  <i_m_Source_File_Index>  (1) 
17

>  <s_m_job_name>  (1) 
glide-dock_SP_tnks2_no_cons

>  <r_i_docking_score>  (1) 
-9.49210567467372

>  <r_i_glide_gscore>  (1) 
-9.49210567467372

>  <r_i_glide_emodel>  (1) 
-44.9837977553606

>  <index_string>  (1) 
16:0:0

$$$$
