16:0:0
     RDKit          3D

 44 46  0  0  1  0  0  0  0  0999 V2000
   34.2560   35.4770   19.9820 C   0  0  0  0  0  0  0  0  0  0  0  0
   34.7790   36.6390   20.5470 C   0  0  0  0  0  0  0  0  0  0  0  0
   34.7600   36.8090   21.9250 C   0  0  0  0  0  0  0  0  0  0  0  0
   35.2650   37.9630   22.5170 C   0  0  0  0  0  0  0  0  0  0  0  0
   35.2280   38.1010   23.8670 N   0  0  0  0  0  0  0  0  0  0  0  0
   34.7020   37.1250   24.6590 C   0  0  0  0  0  0  0  0  0  0  0  0
   34.6690   37.2790   26.0800 N   0  0  0  0  0  0  0  0  0  0  0  0
   34.2080   35.9900   24.0980 N   0  0  0  0  0  0  0  0  0  0  0  0
   34.2210   35.8040   22.7480 C   0  0  0  0  0  0  0  0  0  0  0  0
   33.7290   34.6550   22.1890 N   0  0  0  0  0  0  0  0  0  0  0  0
   33.1850   33.6080   23.0510 C   0  0  0  0  0  0  0  0  0  0  0  0
   33.7490   34.4690   20.8320 C   0  0  0  0  0  0  0  0  0  0  0  0
   33.3330   33.3850   20.3370 O   0  0  0  0  0  0  0  0  0  0  0  0
   34.2970   35.3380   18.5870 O   0  0  0  0  0  0  0  0  0  0  0  0
   36.2550   36.1380   15.5600 C   0  0  0  0  0  0  0  0  0  0  0  0
   35.1860   35.8520   16.4120 C   0  0  0  0  0  0  0  0  0  0  0  0
   35.4020   35.6310   17.7770 C   0  0  0  0  0  0  0  0  0  0  0  0
   36.7200   35.6690   18.2800 C   0  0  0  0  0  0  0  0  0  0  0  0
   36.9820   35.3920   19.5810 F   0  0  0  0  0  0  0  0  0  0  0  0
   37.7870   35.9540   17.4220 C   0  0  0  0  0  0  0  0  0  0  0  0
   37.5560   36.1960   16.0670 C   0  0  0  0  0  0  0  0  0  0  0  0
   38.5920   36.4740   15.2410 F   0  0  0  0  0  0  0  0  0  0  0  0
   35.1510   38.4760   26.7530 C   0  0  0  0  0  0  0  0  0  0  0  0
   33.9830   39.3770   27.1100 C   0  0  0  0  0  0  0  0  0  0  0  0
   33.9760   39.7070   28.8590 S   0  0  0  0  0  6  0  0  0  0  0  0
   32.5740   39.6120   29.3890 O   0  0  0  0  0  0  0  0  0  0  0  0
   34.5080   41.0910   29.1040 O   0  0  0  0  0  0  0  0  0  0  0  0
   35.0080   38.5280   29.7000 C   0  0  0  0  0  0  0  0  0  0  0  0
   35.2064   37.4207   19.9018 H   0  0  0  0  0  0  0  0  0  0  0  0
   35.6930   38.7611   21.8926 H   0  0  0  0  0  0  0  0  0  0  0  0
   34.2883   36.5110   26.6511 H   0  0  0  0  0  0  0  0  0  0  0  0
   33.3306   33.8882   24.1047 H   0  0  0  0  0  0  0  0  0  0  0  0
   32.1105   33.4879   22.8486 H   0  0  0  0  0  0  0  0  0  0  0  0
   33.7044   32.6597   22.8486 H   0  0  0  0  0  0  0  0  0  0  0  0
   36.0730   36.3176   14.4901 H   0  0  0  0  0  0  0  0  0  0  0  0
   34.1648   35.8000   16.0065 H   0  0  0  0  0  0  0  0  0  0  0  0
   38.8131   35.9876   17.8169 H   0  0  0  0  0  0  0  0  0  0  0  0
   35.6830   38.1881   27.6717 H   0  0  0  0  0  0  0  0  0  0  0  0
   35.8329   39.0180   26.0812 H   0  0  0  0  0  0  0  0  0  0  0  0
   34.0747   40.3259   26.5612 H   0  0  0  0  0  0  0  0  0  0  0  0
   33.0439   38.8744   26.8351 H   0  0  0  0  0  0  0  0  0  0  0  0
   34.8977   38.6540   30.7872 H   0  0  0  0  0  0  0  0  0  0  0  0
   34.7065   37.5088   29.4165 H   0  0  0  0  0  0  0  0  0  0  0  0
   36.0581   38.6919   29.4165 H   0  0  0  0  0  0  0  0  0  0  0  0
  1  2  2  0
  1 12  1  0
  1 14  1  0
  2  3  1  0
  3  4  2  0
  3  9  1  0
  4  5  1  0
  5  6  2  0
  6  7  1  0
  6  8  1  0
  7 23  1  0
  8  9  2  0
  9 10  1  0
 10 11  1  0
 10 12  1  0
 12 13  2  0
 14 17  1  0
 15 21  2  0
 15 16  1  0
 16 17  2  0
 17 18  1  0
 18 19  1  0
 18 20  2  0
 20 21  1  0
 21 22  1  0
 23 24  1  0
 24 25  1  0
 25 27  2  0
 25 26  2  0
 25 28  1  0
  2 29  1  0
  4 30  1  0
  7 31  1  0
 11 32  1  0
 11 33  1  0
 11 34  1  0
 15 35  1  0
 16 36  1  0
 20 37  1  0
 23 38  1  0
 23 39  1  0
 24 40  1  0
 24 41  1  0
 28 42  1  0
 28 43  1  0
 28 44  1  0
M  END
>  <s_m_entry_id>  (1) 
66

>  <MODEL>  (1) 
20

>  <REMARK>  (1) 
 VINA RESULT:    -6.331      2.058      2.383
 INTER + INTRA:          -8.597
 INTER:                  -8.914
 INTRA:                   0.316
 UNBOUND:                -0.416
  Name = /scratch/kmzp800/tmprcvzwpuy/tmpt5ubkg0d.pdb
  7 active torsions:
  status: ('A' for Active; 'I' for Inactive)
    1  A    between atoms: C3_3  and  O1_4
    2  A    between atoms: O1_4  and  C4_5
    3  A    between atoms: N2_11  and  C9_12
    4  A    between atoms: C9_12  and  C10_13
    5  A    between atoms: C10_13  and  S1_14
    6  A    between atoms: S1_14  and  C11_17
    7  A    between atoms: N4_20  and  C13_21
                            x       y       z     vdW  Elec       q    Type
                         _______ _______ _______ _____ _____    ______ ____

>  <TORSDO>  (1) 
F 5

>  <grid_id>  (1) 
p38-prepared

>  <grid_path>  (1) 
/projects/mai/users/kmzp800_harry/pmx_colab/docking_jobs/p38/vina_docking/input_files/p38_vina.pdbqt

>  <grid_filename>  (1) 
p38_vina.pdbqt

>  <docking_score>  (1) 
-6.331

>  <compound_name>  (1) 
lig_p38a_2bb

>  <index_string>  (1) 
16:0:0

$$$$
