38:0:0
     RDKit          3D

 54 59  0  0  1  0  0  0  0  0999 V2000
    5.8320   -0.4350   16.2650 C   0  0  0  0  0  0  0  0  0  0  0  0
    4.5760   -0.9490   16.2440 N   0  0  0  0  0  0  0  0  0  0  0  0
    3.9710   -0.2630   15.2600 C   0  0  0  0  0  0  0  0  0  0  0  0
    2.6540   -0.4090   14.8280 C   0  0  0  0  0  0  0  0  0  0  0  0
    1.7870   -1.3710   15.4480 N   0  0  0  0  0  0  0  0  0  0  0  0
    2.2310    0.3900   13.8050 N   0  0  0  0  0  0  0  0  0  0  0  0
    3.0530    1.3110   13.2080 C   0  0  0  0  0  0  0  0  0  0  0  0
    4.3780    1.4370   13.6640 C   0  0  0  0  0  0  0  0  0  0  0  0
    4.7730    0.6330   14.6790 N   0  0  0  0  0  0  0  0  0  0  0  0
    5.9610    0.5520   15.2910 C   0  0  0  0  0  0  0  0  0  0  0  0
    2.5430    2.1500   12.1030 C   0  0  0  0  0  0  0  0  0  0  0  0
    3.4440    2.6700   11.1390 C   0  0  0  0  0  0  0  0  0  0  0  0
    2.9880    3.4710   10.0760 C   0  0  0  0  0  0  0  0  0  0  0  0
    1.6240    3.7280   10.0130 C   0  0  0  0  0  0  0  0  0  0  0  0
    0.8740    4.4570    9.1200 C   0  0  0  0  0  0  0  0  0  0  0  0
   -0.4150    4.3730    9.5370 N   0  0  0  0  0  0  0  0  0  0  0  0
   -0.4970    3.6300   10.6370 N   0  0  0  0  0  0  0  0  0  0  0  0
    0.7490    3.2340   10.9320 C   0  0  0  0  0  0  0  0  0  0  0  0
    1.1630    2.4390   11.9950 C   0  0  0  0  0  0  0  0  0  0  0  0
    0.4160   -1.6360   15.1190 C   0  0  0  0  0  0  0  0  0  0  0  0
   -0.3590   -0.7370   14.3740 C   0  0  0  0  0  0  0  0  0  0  0  0
   -1.6910   -1.0320   14.0740 C   0  0  0  0  0  0  0  0  0  0  0  0
   -2.2760   -2.2320   14.5130 C   0  0  0  0  0  0  0  0  0  0  0  0
   -1.4920   -3.1280   15.2600 C   0  0  0  0  0  0  0  0  0  0  0  0
   -0.1590   -2.8320   15.5590 C   0  0  0  0  0  0  0  0  0  0  0  0
   -3.6500   -2.5370   14.2040 N   0  0  0  0  0  0  0  0  0  0  0  0
   -4.0350   -2.8110   12.8080 C   0  0  0  0  0  0  0  0  0  0  0  0
   -5.5340   -3.0480   12.6280 C   0  0  0  0  0  0  0  0  0  0  0  0
   -6.0960   -4.2810   13.7840 S   0  0  0  0  0  6  0  0  0  0  0  0
   -7.5870   -4.1870   13.9430 O   0  0  0  0  0  0  0  0  0  0  0  0
   -5.7230   -5.6520   13.2930 O   0  0  0  0  0  0  0  0  0  0  0  0
   -5.2970   -3.9600   15.3410 C   0  0  0  0  0  0  0  0  0  0  0  0
   -4.6420   -2.5880   15.2850 C   0  0  0  0  0  0  0  0  0  0  0  0
    6.6313   -0.7518   16.9511 H   0  0  0  0  0  0  0  0  0  0  0  0
    2.1931   -1.9311   16.2111 H   0  0  0  0  0  0  0  0  0  0  0  0
    5.0690    2.1635   13.2115 H   0  0  0  0  0  0  0  0  0  0  0  0
    6.8596    1.1464   15.0689 H   0  0  0  0  0  0  0  0  0  0  0  0
    4.5170    2.4433   11.2238 H   0  0  0  0  0  0  0  0  0  0  0  0
    3.6826    3.8770    9.3258 H   0  0  0  0  0  0  0  0  0  0  0  0
    1.2460    5.0017    8.2398 H   0  0  0  0  0  0  0  0  0  0  0  0
   -1.3537    3.4025   11.1616 H   0  0  0  0  0  0  0  0  0  0  0  0
    0.4413    2.0480   12.7273 H   0  0  0  0  0  0  0  0  0  0  0  0
    0.0843    0.2067   14.0233 H   0  0  0  0  0  0  0  0  0  0  0  0
   -2.2881   -0.3177   13.4881 H   0  0  0  0  0  0  0  0  0  0  0  0
   -1.9321   -4.0723   15.6131 H   0  0  0  0  0  0  0  0  0  0  0  0
    0.4412   -3.5444   16.1440 H   0  0  0  0  0  0  0  0  0  0  0  0
   -3.7413   -1.9499   12.1897 H   0  0  0  0  0  0  0  0  0  0  0  0
   -3.5210   -3.7349   12.5044 H   0  0  0  0  0  0  0  0  0  0  0  0
   -6.0759   -2.1074   12.8058 H   0  0  0  0  0  0  0  0  0  0  0  0
   -5.7246   -3.3989   11.6031 H   0  0  0  0  0  0  0  0  0  0  0  0
   -6.0423   -3.9806   16.1497 H   0  0  0  0  0  0  0  0  0  0  0  0
   -4.5349   -4.7293   15.5345 H   0  0  0  0  0  0  0  0  0  0  0  0
   -4.1432   -2.3853   16.2442 H   0  0  0  0  0  0  0  0  0  0  0  0
   -5.4167   -1.8309   15.0937 H   0  0  0  0  0  0  0  0  0  0  0  0
  1  2  1  0
  1 10  2  0
  2  3  2  0
  3  4  1  0
  3  9  1  0
  4  5  1  0
  4  6  2  0
  5 20  1  0
  6  7  1  0
  7  8  2  0
  7 11  1  0
  8  9  1  0
  9 10  1  0
 11 12  2  0
 11 19  1  0
 12 13  1  0
 13 14  2  0
 14 18  1  0
 14 15  1  0
 15 16  2  0
 16 17  1  0
 17 18  1  0
 18 19  2  0
 20 25  1  0
 20 21  2  0
 21 22  1  0
 22 23  2  0
 23 24  1  0
 23 26  1  0
 24 25  2  0
 26 33  1  0
 26 27  1  0
 27 28  1  0
 28 29  1  0
 29 30  2  0
 29 32  1  0
 29 31  2  0
 32 33  1  0
  1 34  1  0
  5 35  1  0
  8 36  1  0
 10 37  1  0
 12 38  1  0
 13 39  1  0
 15 40  1  0
 17 41  1  0
 19 42  1  0
 21 43  1  0
 22 44  1  0
 24 45  1  0
 25 46  1  0
 27 47  1  0
 27 48  1  0
 28 49  1  0
 28 50  1  0
 32 51  1  0
 32 52  1  0
 33 53  1  0
 33 54  1  0
M  END
>  <s_m_entry_id>  (1) 
39

>  <MODEL>  (1) 
1

>  <REMARK>  (1) 
 VINA RESULT:   -10.189      0.000      0.000
 INTER + INTRA:         -12.314
 INTER:                 -11.976
 INTRA:                  -0.338
 UNBOUND:                -0.338
  Name = /scratch/kmzp800/tmpycr8g3gr/tmpwvasvado.pdb
  3 active torsions:
  status: ('A' for Active; 'I' for Inactive)
    1  A    between atoms: N2_5  and  C4_6
    2  A    between atoms: C7_9  and  N3_10
    3  A    between atoms: C14_21  and  C15_22
                            x       y       z     vdW  Elec       q    Type
                         _______ _______ _______ _____ _____    ______ ____

>  <TORSDO>  (1) 
F 3

>  <grid_id>  (1) 
syk-prepared

>  <grid_path>  (1) 
syk_vina.pdbqt

>  <grid_filename>  (1) 
syk_vina.pdbqt

>  <docking_score>  (1) 
-10.189

>  <compound_name>  (1) 
CHEMBL3265033

>  <index_string>  (1) 
38:0:0

>  <s_m_Source_Path>  (1) 
/projects/mai/users/kmzp800_harry/pmx_colab/docking_jobs/syk/vina_prep/output

>  <s_m_Source_File>  (1) 
ptp1b_docked_conformers.sdf

>  <i_m_Source_File_Index>  (1) 
39

$$$$
