29:0:0
     RDKit          3D

 51 54  0  0  1  0  0  0  0  0999 V2000
   -4.5789   -3.0021   15.6662 C   0  0  0  0  0  0  0  0  0  0  0  0
   -3.8882   -2.2584   14.6723 O   0  0  0  0  0  0  0  0  0  0  0  0
   -2.5319   -2.0728   14.8221 C   0  0  0  0  0  0  0  0  0  0  0  0
   -1.7409   -2.8316   15.7121 C   0  0  0  0  0  0  0  0  0  0  0  0
   -0.3656   -2.5911   15.8173 C   0  0  0  0  0  0  0  0  0  0  0  0
    0.2478   -1.5712   15.0714 C   0  0  0  0  0  0  0  0  0  0  0  0
    1.6177   -1.3588   15.2907 N   0  0  0  0  0  0  0  0  0  0  0  0
    2.5291   -0.4400   14.7290 C   0  0  0  0  0  0  0  0  0  0  0  0
    2.1923    0.3693   13.7545 N   0  0  0  0  0  0  0  0  0  0  0  0
    3.1178    1.2498   13.2297 C   0  0  0  0  0  0  0  0  0  0  0  0
    4.4185    1.2861   13.6803 C   0  0  0  0  0  0  0  0  0  0  0  0
    4.7542    0.4900   14.7272 N   0  0  0  0  0  0  0  0  0  0  0  0
    5.9035    0.3881   15.4829 C   0  0  0  0  0  0  0  0  0  0  0  0
    5.6078   -0.4948   16.4965 C   0  0  0  0  0  0  0  0  0  0  0  0
    4.3642   -1.0567   16.3306 N   0  0  0  0  0  0  0  0  0  0  0  0
    3.8309   -0.4153   15.2946 C   0  0  0  0  0  0  0  0  0  0  0  0
    2.6484    2.1629   12.1580 C   0  0  0  0  0  0  0  0  0  0  0  0
    3.5562    2.6620   11.1893 C   0  0  0  0  0  0  0  0  0  0  0  0
    3.1464    3.4901   10.1364 C   0  0  0  0  0  0  0  0  0  0  0  0
    1.7926    3.8558   10.0392 C   0  0  0  0  0  0  0  0  0  0  0  0
    1.3824    4.7547    8.8839 C   0  0  0  0  0  0  0  0  0  0  0  0
    0.8627    3.3817   11.0161 C   0  0  0  0  0  0  0  0  0  0  0  0
    1.2929    2.5461   12.0706 C   0  0  0  0  0  0  0  0  0  0  0  0
   -0.5962    3.7119   10.9586 C   0  0  0  0  0  0  0  0  0  0  0  0
   -1.2336    3.9973   11.9684 O   0  0  0  0  0  0  0  0  0  0  0  0
   -1.1698    3.6035    9.7620 N   0  0  0  0  0  0  0  0  0  0  0  0
   -0.5403   -0.8163   14.1774 C   0  0  0  0  0  0  0  0  0  0  0  0
   -1.9245   -1.0639   14.0397 C   0  0  0  0  0  0  0  0  0  0  0  0
   -2.7412   -0.3341   13.1985 O   0  0  0  0  0  0  0  0  0  0  0  0
   -2.1816    0.6974   12.3922 C   0  0  0  0  0  0  0  0  0  0  0  0
   -5.6339   -3.0561   15.3984 H   0  0  0  0  0  0  0  0  0  0  0  0
   -4.2103   -4.0246   15.7421 H   0  0  0  0  0  0  0  0  0  0  0  0
   -4.5106   -2.5177   16.6416 H   0  0  0  0  0  0  0  0  0  0  0  0
   -2.1603   -3.6059   16.3307 H   0  0  0  0  0  0  0  0  0  0  0  0
    0.2163   -3.1959   16.4948 H   0  0  0  0  0  0  0  0  0  0  0  0
    2.0635   -2.0349   15.9008 H   0  0  0  0  0  0  0  0  0  0  0  0
    5.1883    1.9443   13.2984 H   0  0  0  0  0  0  0  0  0  0  0  0
    6.7699    0.9841   15.2327 H   0  0  0  0  0  0  0  0  0  0  0  0
    6.1778   -0.7580   17.3549 H   0  0  0  0  0  0  0  0  0  0  0  0
    4.5946    2.3852   11.2279 H   0  0  0  0  0  0  0  0  0  0  0  0
    3.8808    3.8271    9.4150 H   0  0  0  0  0  0  0  0  0  0  0  0
    2.2473    5.1629    8.3638 H   0  0  0  0  0  0  0  0  0  0  0  0
    0.7953    4.1915    8.1580 H   0  0  0  0  0  0  0  0  0  0  0  0
    0.7851    5.5931    9.2431 H   0  0  0  0  0  0  0  0  0  0  0  0
    0.5963    2.1738   12.8140 H   0  0  0  0  0  0  0  0  0  0  0  0
   -2.1491    3.8083    9.6613 H   0  0  0  0  0  0  0  0  0  0  0  0
   -0.6076    3.3418    8.9647 H   0  0  0  0  0  0  0  0  0  0  0  0
   -0.0866   -0.0319   13.6047 H   0  0  0  0  0  0  0  0  0  0  0  0
   -2.9618    1.1011   11.7440 H   0  0  0  0  0  0  0  0  0  0  0  0
   -1.8048    1.5202   13.0005 H   0  0  0  0  0  0  0  0  0  0  0  0
   -1.3849    0.3262   11.7470 H   0  0  0  0  0  0  0  0  0  0  0  0
  1  2  1  0
  1 31  1  0
  1 32  1  0
  1 33  1  0
  2  3  1  0
  3  4  2  0
  3 28  1  0
  4  5  1  0
  4 34  1  0
  5  6  2  0
  5 35  1  0
  6  7  1  0
  6 27  1  0
  7  8  1  0
  7 36  1  0
  8  9  2  0
  8 16  1  0
  9 10  1  0
 10 11  2  0
 10 17  1  0
 11 12  1  0
 11 37  1  0
 12 13  1  0
 12 16  1  0
 13 14  2  0
 13 38  1  0
 14 15  1  0
 14 39  1  0
 15 16  2  0
 17 18  2  0
 17 23  1  0
 18 19  1  0
 18 40  1  0
 19 20  2  0
 19 41  1  0
 20 21  1  0
 20 22  1  0
 21 42  1  0
 21 43  1  0
 21 44  1  0
 22 23  2  0
 22 24  1  0
 23 45  1  0
 24 25  2  0
 24 26  1  0
 26 46  1  0
 26 47  1  0
 27 28  2  0
 27 48  1  0
 28 29  1  0
 29 30  1  0
 30 49  1  0
 30 50  1  0
 30 51  1  0
M  END
>  <s_m_entry_id>  (1) 
1110

>  <IC50[nM]>  (1) 
28.3

>  <s_m_Source_Path>  (1) 
/projects/mai/users/kmzp800_harry/pmx_colab/docking_jobs/syk

>  <s_m_Source_File>  (1) 
tnks2_lig.sdf

>  <i_m_Source_File_Index>  (1) 
32

>  <s_m_job_name>  (1) 
glide-dock_SP_syk_mcs

>  <r_i_docking_score>  (1) 
-6.6991473217939

>  <r_i_glide_gscore>  (1) 
-6.6991473217939

>  <r_i_glide_emodel>  (1) 
-51.9794360163723

>  <index_string>  (1) 
29:0:0

$$$$
