2:0:0
     RDKit          3D

 47 51  0  0  1  0  0  0  0  0999 V2000
   -4.5307   -3.2297   15.4812 C   0  0  0  0  0  0  0  0  0  0  0  0
   -3.8890   -2.2614   14.6625 O   0  0  0  0  0  0  0  0  0  0  0  0
   -2.5332   -2.0718   14.8156 C   0  0  0  0  0  0  0  0  0  0  0  0
   -1.7419   -2.8315   15.7057 C   0  0  0  0  0  0  0  0  0  0  0  0
   -0.3679   -2.5855   15.8175 C   0  0  0  0  0  0  0  0  0  0  0  0
    0.2460   -1.5640   15.0731 C   0  0  0  0  0  0  0  0  0  0  0  0
    1.6124   -1.3429   15.2998 N   0  0  0  0  0  0  0  0  0  0  0  0
    2.5289   -0.4365   14.7422 C   0  0  0  0  0  0  0  0  0  0  0  0
    2.1956    0.3698   13.7552 N   0  0  0  0  0  0  0  0  0  0  0  0
    3.1226    1.2495   13.2306 C   0  0  0  0  0  0  0  0  0  0  0  0
    4.4218    1.2855   13.6823 C   0  0  0  0  0  0  0  0  0  0  0  0
    4.7558    0.4854   14.7277 N   0  0  0  0  0  0  0  0  0  0  0  0
    5.9059    0.3839   15.4826 C   0  0  0  0  0  0  0  0  0  0  0  0
    5.6093   -0.4969   16.4941 C   0  0  0  0  0  0  0  0  0  0  0  0
    4.3625   -1.0603   16.3307 N   0  0  0  0  0  0  0  0  0  0  0  0
    3.8294   -0.4188   15.2945 C   0  0  0  0  0  0  0  0  0  0  0  0
    2.6542    2.1642   12.1586 C   0  0  0  0  0  0  0  0  0  0  0  0
    3.5647    2.6679   11.1886 C   0  0  0  0  0  0  0  0  0  0  0  0
    3.1557    3.4942   10.1293 C   0  0  0  0  0  0  0  0  0  0  0  0
    1.8036    3.8396   10.0498 C   0  0  0  0  0  0  0  0  0  0  0  0
    1.0583    4.5967    9.1643 N   0  0  0  0  0  0  0  0  0  0  0  0
   -0.2601    4.6533    9.4966 N   0  0  0  0  0  0  0  0  0  0  0  0
   -0.3864    3.9522   10.6041 C   0  0  0  0  0  0  0  0  0  0  0  0
    0.8585    3.3868   11.0169 C   0  0  0  0  0  0  0  0  0  0  0  0
    1.2958    2.5501   12.0730 C   0  0  0  0  0  0  0  0  0  0  0  0
   -0.5411   -0.8113   14.1770 C   0  0  0  0  0  0  0  0  0  0  0  0
   -1.9264   -1.0563   14.0400 C   0  0  0  0  0  0  0  0  0  0  0  0
   -2.7391   -0.3270   13.1977 O   0  0  0  0  0  0  0  0  0  0  0  0
   -2.1810    0.7037   12.3896 C   0  0  0  0  0  0  0  0  0  0  0  0
   -5.5923   -3.2541   15.2368 H   0  0  0  0  0  0  0  0  0  0  0  0
   -4.4411   -2.9807   16.5398 H   0  0  0  0  0  0  0  0  0  0  0  0
   -4.1308   -4.2300   15.3095 H   0  0  0  0  0  0  0  0  0  0  0  0
   -2.1619   -3.6064   16.3246 H   0  0  0  0  0  0  0  0  0  0  0  0
    0.2123   -3.1841   16.5006 H   0  0  0  0  0  0  0  0  0  0  0  0
    2.0062   -1.8633   16.0790 H   0  0  0  0  0  0  0  0  0  0  0  0
    5.1939    1.9439   13.3046 H   0  0  0  0  0  0  0  0  0  0  0  0
    6.7706    0.9815   15.2370 H   0  0  0  0  0  0  0  0  0  0  0  0
    6.1709   -0.7653   17.3591 H   0  0  0  0  0  0  0  0  0  0  0  0
    4.6043    2.3960   11.2342 H   0  0  0  0  0  0  0  0  0  0  0  0
    3.8724    3.8419    9.4000 H   0  0  0  0  0  0  0  0  0  0  0  0
    1.4135    5.0809    8.3461 H   0  0  0  0  0  0  0  0  0  0  0  0
   -1.3466    3.8488   11.0958 H   0  0  0  0  0  0  0  0  0  0  0  0
    0.5945    2.1937   12.8191 H   0  0  0  0  0  0  0  0  0  0  0  0
   -0.0837   -0.0355   13.5963 H   0  0  0  0  0  0  0  0  0  0  0  0
   -2.9823    1.1791   11.8202 H   0  0  0  0  0  0  0  0  0  0  0  0
   -1.7057    1.4793   12.9909 H   0  0  0  0  0  0  0  0  0  0  0  0
   -1.4624    0.3066   11.6719 H   0  0  0  0  0  0  0  0  0  0  0  0
  1  2  1  0
  1 30  1  0
  1 31  1  0
  1 32  1  0
  2  3  1  0
  3  4  2  0
  3 27  1  0
  4  5  1  0
  4 33  1  0
  5  6  2  0
  5 34  1  0
  6  7  1  0
  6 26  1  0
  7  8  1  0
  7 35  1  0
  8  9  2  0
  8 16  1  0
  9 10  1  0
 10 11  2  0
 10 17  1  0
 11 12  1  0
 11 36  1  0
 12 13  1  0
 12 16  1  0
 13 14  2  0
 13 37  1  0
 14 15  1  0
 14 38  1  0
 15 16  2  0
 17 18  2  0
 17 25  1  0
 18 19  1  0
 18 39  1  0
 19 20  2  0
 19 40  1  0
 20 21  1  0
 20 24  1  0
 21 22  1  0
 21 41  1  0
 22 23  2  0
 23 24  1  0
 23 42  1  0
 24 25  2  0
 25 43  1  0
 26 27  2  0
 26 44  1  0
 27 28  1  0
 28 29  1  0
 29 45  1  0
 29 46  1  0
 29 47  1  0
M  END
>  <s_m_entry_id>  (1) 
1111

>  <IC50[nM]>  (1) 
10.4

>  <s_m_Source_Path>  (1) 
/projects/mai/users/kmzp800_harry/pmx_colab/docking_jobs/syk

>  <s_m_Source_File>  (1) 
tnks2_lig.sdf

>  <i_m_Source_File_Index>  (1) 
3

>  <s_m_job_name>  (1) 
glide-dock_SP_syk_mcs

>  <r_i_docking_score>  (1) 
-6.67544918274516

>  <r_i_glide_gscore>  (1) 
-6.67544918274516

>  <r_i_glide_emodel>  (1) 
-46.4306838963644

>  <index_string>  (1) 
2:0:0

$$$$
