26:0:0
     RDKit          3D

 58 61  0  0  1  0  0  0  0  0999 V2000
   32.7442   34.6817   14.3837 F   0  0  0  0  0  0  0  0  0  0  0  0
   33.4629   34.9079   15.5087 C   0  0  0  0  0  0  0  0  0  0  0  0
   34.8617   34.9077   15.4891 C   0  0  0  0  0  0  0  0  0  0  0  0
   35.6092   35.1493   16.6472 C   0  0  0  0  0  0  0  0  0  0  0  0
   36.9597   35.1976   16.5676 F   0  0  0  0  0  0  0  0  0  0  0  0
   34.9517   35.2363   17.8888 C   0  0  0  0  0  0  0  0  0  0  0  0
   33.5394   35.2401   17.9165 C   0  0  0  0  0  0  0  0  0  0  0  0
   32.8157   35.1493   16.7185 C   0  0  0  0  0  0  0  0  0  0  0  0
   35.7092   35.2404   19.0297 O   0  0  0  0  0  0  0  0  0  0  0  0
   35.1808   35.8283   20.1369 C   0  0  0  0  0  0  0  0  0  0  0  0
   35.2718   37.1619   20.2618 C   0  0  0  0  0  0  0  0  0  0  0  0
   34.5521   34.9943   21.1590 C   0  0  0  0  0  0  0  0  0  0  0  0
   34.3435   33.7989   20.9551 O   0  0  0  0  0  0  0  0  0  0  0  0
   34.1974   35.6134   22.3238 N   0  0  0  0  0  0  0  0  0  0  0  0
   33.6873   34.7707   23.4222 C   0  0  0  0  0  0  0  0  0  0  0  0
   32.1826   34.4660   23.2634 C   0  0  0  0  0  0  0  0  0  0  0  0
   31.6775   33.3218   24.1619 C   0  0  0  0  0  0  0  0  0  0  0  0
   31.4556   33.7870   25.9331 S   0  0  0  0  0  0  0  0  0  0  0  0
   31.0764   32.5759   26.6749 O   0  0  0  0  0  0  0  0  0  0  0  0
   32.6010   34.5913   26.3817 O   0  0  0  0  0  0  0  0  0  0  0  0
   29.9929   34.8874   25.8633 C   0  0  0  0  0  0  0  0  0  0  0  0
   34.2814   37.0375   22.5161 C   0  0  0  0  0  0  0  0  0  0  0  0
   34.8023   37.8282   21.4687 C   0  0  0  0  0  0  0  0  0  0  0  0
   33.8835   37.6391   23.6583 N   0  0  0  0  0  0  0  0  0  0  0  0
   34.0024   38.9622   23.7613 C   0  0  0  0  0  0  0  0  0  0  0  0
   34.4651   39.7897   22.8249 N   0  0  0  0  0  0  0  0  0  0  0  0
   34.8626   39.2228   21.6665 C   0  0  0  0  0  0  0  0  0  0  0  0
   33.6290   39.5493   24.9531 N   0  0  0  0  0  0  0  0  0  0  0  0
   33.1041   38.8485   26.1189 C   0  0  0  0  0  0  0  0  0  0  0  0
   33.3581   39.6566   27.4004 C   0  0  0  0  0  0  0  0  0  0  0  0
   32.7453   38.9427   28.6142 C   0  0  0  0  0  0  0  0  0  0  0  0
   31.3517   38.7491   28.4032 O   0  0  0  0  0  0  0  0  0  0  0  0
   31.0645   37.9248   27.2794 C   0  0  0  0  0  0  0  0  0  0  0  0
   31.5961   38.5789   25.9935 C   0  0  0  0  0  0  0  0  0  0  0  0
   35.3521   34.7273   14.5583 H   0  0  0  0  0  0  0  0  0  0  0  0
   32.9828   35.3078   18.8389 H   0  0  0  0  0  0  0  0  0  0  0  0
   31.7391   35.1498   16.7536 H   0  0  0  0  0  0  0  0  0  0  0  0
   35.7421   37.7613   19.4950 H   0  0  0  0  0  0  0  0  0  0  0  0
   34.2505   33.8360   23.4653 H   0  0  0  0  0  0  0  0  0  0  0  0
   33.8874   35.2387   24.3836 H   0  0  0  0  0  0  0  0  0  0  0  0
   31.5984   35.3715   23.4252 H   0  0  0  0  0  0  0  0  0  0  0  0
   31.9860   34.1722   22.2315 H   0  0  0  0  0  0  0  0  0  0  0  0
   30.7150   32.9568   23.8033 H   0  0  0  0  0  0  0  0  0  0  0  0
   32.3664   32.4765   24.1270 H   0  0  0  0  0  0  0  0  0  0  0  0
   29.7522   35.2067   26.8763 H   0  0  0  0  0  0  0  0  0  0  0  0
   30.2047   35.7623   25.2534 H   0  0  0  0  0  0  0  0  0  0  0  0
   29.1379   34.3525   25.4512 H   0  0  0  0  0  0  0  0  0  0  0  0
   35.2511   39.8826   20.9064 H   0  0  0  0  0  0  0  0  0  0  0  0
   33.7521   40.5517   25.0386 H   0  0  0  0  0  0  0  0  0  0  0  0
   33.6239   37.8935   26.2138 H   0  0  0  0  0  0  0  0  0  0  0  0
   34.4281   39.8001   27.5538 H   0  0  0  0  0  0  0  0  0  0  0  0
   32.9173   40.6511   27.3158 H   0  0  0  0  0  0  0  0  0  0  0  0
   33.2354   37.9841   28.7914 H   0  0  0  0  0  0  0  0  0  0  0  0
   32.8851   39.5440   29.5130 H   0  0  0  0  0  0  0  0  0  0  0  0
   31.5048   36.9372   27.4232 H   0  0  0  0  0  0  0  0  0  0  0  0
   29.9851   37.7886   27.2144 H   0  0  0  0  0  0  0  0  0  0  0  0
   31.0605   39.5131   25.8161 H   0  0  0  0  0  0  0  0  0  0  0  0
   31.3946   37.9336   25.1379 H   0  0  0  0  0  0  0  0  0  0  0  0
  1  2  1  0
  2  8  2  0
  2  3  1  0
  3  4  2  0
  3 35  1  0
  4  5  1  0
  4  6  1  0
  6  7  2  0
  6  9  1  0
  7  8  1  0
  7 36  1  0
  8 37  1  0
  9 10  1  0
 10 11  2  0
 10 12  1  0
 11 23  1  0
 11 38  1  0
 12 13  2  0
 12 14  1  0
 14 15  1  0
 14 22  1  0
 15 16  1  0
 15 39  1  0
 15 40  1  0
 16 17  1  0
 16 41  1  0
 16 42  1  0
 17 18  1  0
 17 43  1  0
 17 44  1  0
 18 19  2  0
 18 20  2  0
 18 21  1  0
 21 45  1  0
 21 46  1  0
 21 47  1  0
 22 23  2  0
 22 24  1  0
 23 27  1  0
 24 25  2  0
 25 26  1  0
 25 28  1  0
 26 27  2  0
 27 48  1  0
 28 29  1  0
 28 49  1  0
 29 34  1  0
 29 30  1  0
 29 50  1  0
 30 31  1  0
 30 51  1  0
 30 52  1  0
 31 32  1  0
 31 53  1  0
 31 54  1  0
 32 33  1  0
 33 34  1  0
 33 55  1  0
 33 56  1  0
 34 57  1  0
 34 58  1  0
M  END
>  <s_m_entry_id>  (1) 
277

>  <i_f3d_flags>  (1) 
0

>  <r_lp_tautomer_probability>  (1) 
1

>  <r_epik_Ionization_Penalty>  (1) 
  0.0000

>  <r_epik_State_Penalty>  (1) 
  0.0000

>  <i_epik_Tot_Q>  (1) 
0

>  <s_m_job_name>  (1) 
glide-dock_SP_p38_core_cons_top_1

>  <r_i_docking_score>  (1) 
-6.3432739119991

>  <r_i_glide_gscore>  (1) 
-6.3432739119991

>  <r_i_glide_emodel>  (1) 
-54.0743768501353

>  <index_string>  (1) 
26:0:0

$$$$
