18:0:0
     RDKit          3D

 43 45  0  0  1  0  0  0  0  0999 V2000
   34.3231   35.0798   21.1736 C   0  0  0  0  0  0  0  0  0  0  0  0
   34.0664   38.9877   23.8863 C   0  0  0  0  0  0  0  0  0  0  0  0
   34.7585   37.8895   21.5370 C   0  0  0  0  0  0  0  0  0  0  0  0
   35.1468   37.2231   20.2947 C   0  0  0  0  0  0  0  0  0  0  0  0
   34.1774   37.1081   22.5587 C   0  0  0  0  0  0  0  0  0  0  0  0
   34.9315   39.2666   21.7961 C   0  0  0  0  0  0  0  0  0  0  0  0
   34.9639   35.8917   20.1358 C   0  0  0  0  0  0  0  0  0  0  0  0
   33.2401   34.9643   23.3702 C   0  0  0  0  0  0  0  0  0  0  0  0
   34.5825   39.8143   22.9805 N   0  0  0  0  0  0  0  0  0  0  0  0
   34.1462   33.8727   21.0055 O   0  0  0  0  0  0  0  0  0  0  0  0
   33.9390   35.7172   22.3158 N   0  0  0  0  0  0  0  0  0  0  0  0
   33.8522   37.6831   23.7354 N   0  0  0  0  0  0  0  0  0  0  0  0
   33.7373   39.5495   25.1004 N   0  0  0  0  0  0  0  0  0  0  0  0
   35.5786   37.8357   19.5169 H   0  0  0  0  0  0  0  0  0  0  0  0
   35.3604   39.9410   21.0670 H   0  0  0  0  0  0  0  0  0  0  0  0
   32.9932   33.9337   23.1090 H   0  0  0  0  0  0  0  0  0  0  0  0
   33.8541   34.9245   24.2707 H   0  0  0  0  0  0  0  0  0  0  0  0
   32.3023   35.4577   23.6327 H   0  0  0  0  0  0  0  0  0  0  0  0
   33.8857   40.5510   25.1726 H   0  0  0  0  0  0  0  0  0  0  0  0
   32.7185   39.0032   25.9881 C   0  0  0  0  0  0  0  0  0  0  0  0
   32.9767   39.5092   27.4190 C   0  0  0  0  0  0  0  0  0  0  0  0
   31.3084   39.4100   25.5010 C   0  0  0  0  0  0  0  0  0  0  0  0
   32.7950   37.9144   26.0046 H   0  0  0  0  0  0  0  0  0  0  0  0
   32.1402   38.8483   28.3452 O   0  0  0  0  0  0  0  0  0  0  0  0
   32.8099   40.5851   27.4886 H   0  0  0  0  0  0  0  0  0  0  0  0
   34.0123   39.3246   27.7062 H   0  0  0  0  0  0  0  0  0  0  0  0
   30.9523   38.7338   24.3116 O   0  0  0  0  0  0  0  0  0  0  0  0
   30.5626   39.1471   26.2519 H   0  0  0  0  0  0  0  0  0  0  0  0
   31.2374   40.4861   25.3462 H   0  0  0  0  0  0  0  0  0  0  0  0
   32.3572   37.9301   28.3519 H   0  0  0  0  0  0  0  0  0  0  0  0
   31.0904   37.8072   24.4391 H   0  0  0  0  0  0  0  0  0  0  0  0
   35.2767   35.2025   18.9889 O   0  0  0  0  0  0  0  0  0  0  0  0
   37.8191   36.5727   15.9664 C   0  0  0  0  0  0  0  0  0  0  0  0
   38.3528   36.3494   17.2550 C   0  0  0  0  0  0  0  0  0  0  0  0
   37.5002   35.9917   18.3187 C   0  0  0  0  0  0  0  0  0  0  0  0
   36.1476   35.6822   18.0476 C   0  0  0  0  0  0  0  0  0  0  0  0
   35.6833   35.7438   16.7250 C   0  0  0  0  0  0  0  0  0  0  0  0
   36.4831   36.2600   15.6956 C   0  0  0  0  0  0  0  0  0  0  0  0
   38.5548   37.1504   14.9994 F   0  0  0  0  0  0  0  0  0  0  0  0
   39.3833   36.5985   17.4589 H   0  0  0  0  0  0  0  0  0  0  0  0
   37.9832   35.9481   19.5806 F   0  0  0  0  0  0  0  0  0  0  0  0
   34.6568   35.4799   16.5182 H   0  0  0  0  0  0  0  0  0  0  0  0
   36.0840   36.4250   14.6996 H   0  0  0  0  0  0  0  0  0  0  0  0
  1  7  1  0
  1 10  2  0
  1 11  1  0
  2  9  1  0
  2 12  2  0
  2 13  1  0
  3  4  1  0
  3  5  2  0
  3  6  1  0
  4  7  2  0
  4 14  1  0
  5 11  1  0
  5 12  1  0
  6  9  2  0
  6 15  1  0
  7 32  1  0
  8 11  1  0
  8 16  1  0
  8 17  1  0
  8 18  1  0
 13 19  1  0
 13 20  1  0
 20 21  1  0
 20 22  1  0
 20 23  1  0
 21 24  1  0
 21 25  1  0
 21 26  1  0
 22 27  1  0
 22 28  1  0
 22 29  1  0
 24 30  1  0
 27 31  1  0
 32 36  1  0
 33 34  2  0
 33 38  1  0
 33 39  1  0
 34 35  1  0
 34 40  1  0
 35 36  2  0
 35 41  1  0
 36 37  1  0
 37 38  2  0
 37 42  1  0
 38 43  1  0
M  END
>  <s_m_entry_id>  (1) 
836

>  <s_m_Source_Path>  (1) 
/projects/mai/users/kmzp800_harry/pmx_colab/docking_jobs/p38/glide-dock_SP_p38_mcs_docking_2

>  <s_m_Source_File>  (1) 
glide-dock_SP_p38_mcs_docking_2_pv.maegz

>  <i_m_Source_File_Index>  (1) 
20

>  <s_pdb_PDB_TITLE>  (1) 
MX MODEL

>  <r_i_docking_score>  (1) 
-7.21694742909094

>  <r_i_glide_gscore>  (1) 
-7.21694742909094

>  <r_i_glide_emodel>  (1) 
-44.2890454355795

>  <index_string>  (1) 
18:0:0

$$$$
