34:0:0
     RDKit          3D

 65 69  0  0  1  0  0  0  0  0999 V2000
    6.0700   -0.3780   16.2950 C   0  0  0  0  0  0  0  0  0  0  0  0
    4.8340   -0.9400   16.2630 N   0  0  0  0  0  0  0  0  0  0  0  0
    4.2040   -0.2610   15.2890 C   0  0  0  0  0  0  0  0  0  0  0  0
    2.8950   -0.4470   14.8540 C   0  0  0  0  0  0  0  0  0  0  0  0
    2.0610   -1.4540   15.4470 N   0  0  0  0  0  0  0  0  0  0  0  0
    2.4450    0.3520   13.8430 N   0  0  0  0  0  0  0  0  0  0  0  0
    3.2290    1.3150   13.2640 C   0  0  0  0  0  0  0  0  0  0  0  0
    4.5490    1.4870   13.7270 C   0  0  0  0  0  0  0  0  0  0  0  0
    4.9710    0.6780   14.7270 N   0  0  0  0  0  0  0  0  0  0  0  0
    6.1620    0.6310   15.3400 C   0  0  0  0  0  0  0  0  0  0  0  0
    0.6810   -1.7100   15.1490 C   0  0  0  0  0  0  0  0  0  0  0  0
    0.0920   -2.8830   15.6300 C   0  0  0  0  0  0  0  0  0  0  0  0
   -1.2520   -3.1630   15.3650 C   0  0  0  0  0  0  0  0  0  0  0  0
   -2.0410   -2.2620   14.6270 C   0  0  0  0  0  0  0  0  0  0  0  0
   -1.4360   -1.0960   14.1270 C   0  0  0  0  0  0  0  0  0  0  0  0
   -0.0930   -0.8190   14.3920 C   0  0  0  0  0  0  0  0  0  0  0  0
   -3.4780   -2.5960   14.2730 C   0  0  0  0  0  0  0  0  0  0  0  0
   -3.7180   -4.0990   14.2710 C   0  0  0  0  0  0  0  0  0  0  0  0
   -3.8480   -2.0750   12.8920 C   0  0  0  0  0  0  0  0  0  0  0  0
   -4.4040   -1.9610   15.2920 C   0  0  0  0  0  0  0  0  0  0  0  0
    2.6810    2.1500   12.1760 C   0  0  0  0  0  0  0  0  0  0  0  0
    3.4450    2.4620   11.0420 C   0  0  0  0  0  0  0  0  0  0  0  0
    2.9090    3.2640   10.0290 C   0  0  0  0  0  0  0  0  0  0  0  0
    1.6060    3.7570   10.1420 C   0  0  0  0  0  0  0  0  0  0  0  0
    0.8280    3.4480   11.2620 C   0  0  0  0  0  0  0  0  0  0  0  0
    1.3760    2.6500   12.2760 C   0  0  0  0  0  0  0  0  0  0  0  0
   -0.5000    3.9800   11.3570 N   0  0  0  0  0  0  0  0  0  0  0  0
   -1.7080    3.2210   11.5200 C   0  0  0  0  0  0  0  0  0  0  0  0
   -1.6910    1.9630   11.4340 O   0  0  0  0  0  0  0  0  0  0  0  0
   -2.9830    3.9140   11.7750 C   0  0  0  0  0  0  0  0  0  0  0  0
   -4.1570    3.4980   11.1310 C   0  0  0  0  0  0  0  0  0  0  0  0
   -5.3680    4.1510   11.3760 C   0  0  0  0  0  0  0  0  0  0  0  0
   -5.4230    5.2290   12.2690 C   0  0  0  0  0  0  0  0  0  0  0  0
   -4.2500    5.6460   12.9140 C   0  0  0  0  0  0  0  0  0  0  0  0
   -3.0380    4.9920   12.6690 C   0  0  0  0  0  0  0  0  0  0  0  0
   -6.7000    5.9130   12.5240 C   0  0  0  0  0  0  0  0  0  0  0  0
   -7.6500    5.8180   11.7020 O   0  0  0  0  0  0  0  0  0  0  0  0
   -6.8700    6.6730   13.6760 O   0  0  0  0  0  0  0  0  0  0  0  0
    6.8804   -0.6765   16.9762 H   0  0  0  0  0  0  0  0  0  0  0  0
    2.4986   -2.0548   16.1601 H   0  0  0  0  0  0  0  0  0  0  0  0
    5.2114    2.2499   13.2921 H   0  0  0  0  0  0  0  0  0  0  0  0
    7.0374    1.2633   15.1304 H   0  0  0  0  0  0  0  0  0  0  0  0
    0.6906   -3.5913   16.2216 H   0  0  0  0  0  0  0  0  0  0  0  0
   -1.6970   -4.0975   15.7374 H   0  0  0  0  0  0  0  0  0  0  0  0
   -2.0268   -0.3939   13.5203 H   0  0  0  0  0  0  0  0  0  0  0  0
    0.3608    0.1049   14.0040 H   0  0  0  0  0  0  0  0  0  0  0  0
   -3.7760   -4.4624   15.3076 H   0  0  0  0  0  0  0  0  0  0  0  0
   -4.6626   -4.3188   13.7520 H   0  0  0  0  0  0  0  0  0  0  0  0
   -2.8888   -4.6020   13.7520 H   0  0  0  0  0  0  0  0  0  0  0  0
   -4.4821   -1.1821   12.9948 H   0  0  0  0  0  0  0  0  0  0  0  0
   -2.9324   -1.8131   12.3415 H   0  0  0  0  0  0  0  0  0  0  0  0
   -4.3969   -2.8532   12.3415 H   0  0  0  0  0  0  0  0  0  0  0  0
   -4.0531   -2.2016   16.3064 H   0  0  0  0  0  0  0  0  0  0  0  0
   -4.4074   -0.8696   15.1544 H   0  0  0  0  0  0  0  0  0  0  0  0
   -5.4233   -2.3511   15.1544 H   0  0  0  0  0  0  0  0  0  0  0  0
    4.4702    2.0743   10.9488 H   0  0  0  0  0  0  0  0  0  0  0  0
    3.5135    3.5069    9.1427 H   0  0  0  0  0  0  0  0  0  0  0  0
    1.1903    4.3916    9.3454 H   0  0  0  0  0  0  0  0  0  0  0  0
    0.7719    2.4127   13.1641 H   0  0  0  0  0  0  0  0  0  0  0  0
   -0.5967    5.0040   11.3032 H   0  0  0  0  0  0  0  0  0  0  0  0
   -4.1246    2.6522   10.4284 H   0  0  0  0  0  0  0  0  0  0  0  0
   -6.2829    3.8168   10.8649 H   0  0  0  0  0  0  0  0  0  0  0  0
   -4.2830    6.4919   13.6164 H   0  0  0  0  0  0  0  0  0  0  0  0
   -2.1232    5.3256   13.1807 H   0  0  0  0  0  0  0  0  0  0  0  0
   -7.7311    7.1317   13.8438 H   0  0  0  0  0  0  0  0  0  0  0  0
  1  2  1  0
  1 10  2  0
  2  3  2  0
  3  4  1  0
  3  9  1  0
  4  5  1  0
  4  6  2  0
  5 11  1  0
  6  7  1  0
  7  8  2  0
  7 21  1  0
  8  9  1  0
  9 10  1  0
 11 12  2  0
 11 16  1  0
 12 13  1  0
 13 14  2  0
 14 15  1  0
 14 17  1  0
 15 16  2  0
 17 20  1  0
 17 18  1  0
 17 19  1  0
 21 26  1  0
 21 22  2  0
 22 23  1  0
 23 24  2  0
 24 25  1  0
 25 27  1  0
 25 26  2  0
 27 28  1  0
 28 30  1  0
 28 29  2  0
 30 35  1  0
 30 31  2  0
 31 32  1  0
 32 33  2  0
 33 36  1  0
 33 34  1  0
 34 35  2  0
 36 38  1  0
 36 37  2  0
  1 39  1  0
  5 40  1  0
  8 41  1  0
 10 42  1  0
 12 43  1  0
 13 44  1  0
 15 45  1  0
 16 46  1  0
 18 47  1  0
 18 48  1  0
 18 49  1  0
 19 50  1  0
 19 51  1  0
 19 52  1  0
 20 53  1  0
 20 54  1  0
 20 55  1  0
 22 56  1  0
 23 57  1  0
 24 58  1  0
 26 59  1  0
 27 60  1  0
 31 61  1  0
 32 62  1  0
 34 63  1  0
 35 64  1  0
 38 65  1  0
M  END
>  <s_m_entry_id>  (1) 
1031

>  <MODEL>  (1) 
1

>  <REMARK>  (1) 
 VINA RESULT:   -10.351      0.000      0.000
 INTER + INTRA:         -14.429
 INTER:                 -13.560
 INTRA:                  -0.869
 UNBOUND:                -0.447
  Name = /scratch/kmzp800/tmppq76zt6o/tmplqsb5_1f.pdb
  9 active torsions:
  status: ('A' for Active; 'I' for Inactive)
    1  A    between atoms: N2_5  and  C4_6
    2  A    between atoms: C7_9  and  C8_10
    3  A    between atoms: C8_10  and  C9_11
    4  A    between atoms: C8_10  and  C10_12
    5  A    between atoms: C8_10  and  C11_13
    6  A    between atoms: C14_17  and  C15_18
    7  A    between atoms: C19_22  and  N4_23
    8  A    between atoms: C20_24  and  C21_26
    9  A    between atoms: C24_29  and  C25_30
                            x       y       z     vdW  Elec       q    Type
                         _______ _______ _______ _____ _____    ______ ____

>  <TORSDO>  (1) 
F 6

>  <grid_id>  (1) 
syk-prepared

>  <grid_path>  (1) 
syk_vina.pdbqt

>  <grid_filename>  (1) 
syk_vina.pdbqt

>  <docking_score>  (1) 
-10.351

>  <compound_name>  (1) 
CHEMBL3264994

>  <index_string>  (1) 
34:0:0

>  <s_m_Source_Path>  (1) 
/projects/mai/users/kmzp800_harry/pmx_colab/docking_jobs/syk/vina_prep/output

>  <s_m_Source_File>  (1) 
ptp1b_docked_conformers.sdf

>  <i_m_Source_File_Index>  (1) 
855

$$$$
