4:0:0
     RDKit          3D

 43 47  0  0  1  0  0  0  0  0999 V2000
   -2.1848    0.6985   12.3893 C   0  0  0  0  0  0  0  0  0  0  0  0
   -2.7453   -0.3307   13.2007 O   0  0  0  0  0  0  0  0  0  0  0  0
   -1.9276   -1.0607   14.0387 C   0  0  0  0  0  0  0  0  0  0  0  0
   -2.5220   -2.0777   14.8149 C   0  0  0  0  0  0  0  0  0  0  0  0
   -1.7448   -2.8370   15.7042 C   0  0  0  0  0  0  0  0  0  0  0  0
   -0.3693   -2.5934   15.8175 C   0  0  0  0  0  0  0  0  0  0  0  0
    0.2434   -1.5699   15.0734 C   0  0  0  0  0  0  0  0  0  0  0  0
    1.6142   -1.3578   15.2893 N   0  0  0  0  0  0  0  0  0  0  0  0
    2.5247   -0.4395   14.7280 C   0  0  0  0  0  0  0  0  0  0  0  0
    2.1870    0.3715   13.7581 N   0  0  0  0  0  0  0  0  0  0  0  0
    3.1154    1.2489   13.2303 C   0  0  0  0  0  0  0  0  0  0  0  0
    4.4163    1.2828   13.6814 C   0  0  0  0  0  0  0  0  0  0  0  0
    4.7514    0.4853   14.7277 N   0  0  0  0  0  0  0  0  0  0  0  0
    5.9037    0.3787   15.4805 C   0  0  0  0  0  0  0  0  0  0  0  0
    5.6140   -0.4999   16.4889 C   0  0  0  0  0  0  0  0  0  0  0  0
    4.3657   -1.0628   16.3285 N   0  0  0  0  0  0  0  0  0  0  0  0
    3.8286   -0.4176   15.2958 C   0  0  0  0  0  0  0  0  0  0  0  0
    2.6471    2.1615   12.1568 C   0  0  0  0  0  0  0  0  0  0  0  0
    3.5594    2.6608   11.1870 C   0  0  0  0  0  0  0  0  0  0  0  0
    3.1560    3.4892   10.1271 C   0  0  0  0  0  0  0  0  0  0  0  0
    1.8013    3.8598   10.0226 C   0  0  0  0  0  0  0  0  0  0  0  0
    1.0022    4.6368    9.1330 C   0  0  0  0  0  0  0  0  0  0  0  0
   -0.2540    4.6567    9.5118 N   0  0  0  0  0  0  0  0  0  0  0  0
   -0.3205    3.9158   10.6420 N   0  0  0  0  0  0  0  0  0  0  0  0
    0.8944    3.3857   11.0174 C   0  0  0  0  0  0  0  0  0  0  0  0
    1.2930    2.5506   12.0711 C   0  0  0  0  0  0  0  0  0  0  0  0
   -0.5446   -0.8116   14.1792 C   0  0  0  0  0  0  0  0  0  0  0  0
   -2.9728    1.1192   11.7627 H   0  0  0  0  0  0  0  0  0  0  0  0
   -1.7800    1.5113   12.9928 H   0  0  0  0  0  0  0  0  0  0  0  0
   -1.4092    0.3180   11.7245 H   0  0  0  0  0  0  0  0  0  0  0  0
   -3.5800   -2.2729   14.7350 H   0  0  0  0  0  0  0  0  0  0  0  0
   -2.1952   -3.6070   16.3072 H   0  0  0  0  0  0  0  0  0  0  0  0
    0.2136   -3.1981   16.4921 H   0  0  0  0  0  0  0  0  0  0  0  0
    2.0580   -2.0263   15.9138 H   0  0  0  0  0  0  0  0  0  0  0  0
    5.1927    1.9291   13.2921 H   0  0  0  0  0  0  0  0  0  0  0  0
    6.7713    0.9741   15.2297 H   0  0  0  0  0  0  0  0  0  0  0  0
    6.1748   -0.7768   17.3455 H   0  0  0  0  0  0  0  0  0  0  0  0
    4.5989    2.3864   11.2364 H   0  0  0  0  0  0  0  0  0  0  0  0
    3.8865    3.8276    9.4041 H   0  0  0  0  0  0  0  0  0  0  0  0
    1.3033    5.1714    8.2422 H   0  0  0  0  0  0  0  0  0  0  0  0
   -1.2033    3.8051   11.1197 H   0  0  0  0  0  0  0  0  0  0  0  0
    0.5754    2.1880   12.7971 H   0  0  0  0  0  0  0  0  0  0  0  0
   -0.0990   -0.0235   13.6031 H   0  0  0  0  0  0  0  0  0  0  0  0
  1  2  1  0
  1 28  1  0
  1 29  1  0
  1 30  1  0
  2  3  1  0
  3  4  2  0
  3 27  1  0
  4  5  1  0
  4 31  1  0
  5  6  2  0
  5 32  1  0
  6  7  1  0
  6 33  1  0
  7  8  1  0
  7 27  2  0
  8  9  1  0
  8 34  1  0
  9 10  2  0
  9 17  1  0
 10 11  1  0
 11 12  2  0
 11 18  1  0
 12 13  1  0
 12 35  1  0
 13 14  1  0
 13 17  1  0
 14 15  2  0
 14 36  1  0
 15 16  1  0
 15 37  1  0
 16 17  2  0
 18 19  2  0
 18 26  1  0
 19 20  1  0
 19 38  1  0
 20 21  2  0
 20 39  1  0
 21 22  1  0
 21 25  1  0
 22 23  2  0
 22 40  1  0
 23 24  1  0
 24 25  1  0
 24 41  1  0
 25 26  2  0
 26 42  1  0
 27 43  1  0
M  END
>  <s_m_entry_id>  (1) 
1102

>  <IC50[nM]>  (1) 
8.5

>  <s_m_Source_Path>  (1) 
/projects/mai/users/kmzp800_harry/pmx_colab/docking_jobs/syk

>  <s_m_Source_File>  (1) 
tnks2_lig.sdf

>  <i_m_Source_File_Index>  (1) 
5

>  <s_m_job_name>  (1) 
glide-dock_SP_syk_mcs

>  <r_i_docking_score>  (1) 
-6.8195373238496

>  <r_i_glide_gscore>  (1) 
-6.8195373238496

>  <r_i_glide_emodel>  (1) 
-45.8135213263267

>  <index_string>  (1) 
4:0:0

$$$$
