40:0:0
     RDKit          3D

 51 55  0  0  1  0  0  0  0  0999 V2000
    1.8240   -1.4790   15.4180 N   0  0  0  0  0  0  0  0  0  0  0  0
    2.6660   -0.4830   14.8180 C   0  0  0  0  0  0  0  0  0  0  0  0
    2.2290    0.3090   13.7950 N   0  0  0  0  0  0  0  0  0  0  0  0
    3.0260    1.2620   13.2140 C   0  0  0  0  0  0  0  0  0  0  0  0
    4.3420    1.4310   13.6880 C   0  0  0  0  0  0  0  0  0  0  0  0
    4.7500    0.6320   14.7030 N   0  0  0  0  0  0  0  0  0  0  0  0
    5.9330    0.5870   15.3280 C   0  0  0  0  0  0  0  0  0  0  0  0
    5.8250   -0.4120   16.2940 C   0  0  0  0  0  0  0  0  0  0  0  0
    4.5880   -0.9670   16.2540 N   0  0  0  0  0  0  0  0  0  0  0  0
    3.9710   -0.2960   15.2670 C   0  0  0  0  0  0  0  0  0  0  0  0
    2.5010    2.0910   12.1110 C   0  0  0  0  0  0  0  0  0  0  0  0
    3.3740    2.6250   11.1260 C   0  0  0  0  0  0  0  0  0  0  0  0
    2.8830    3.4160   10.0710 C   0  0  0  0  0  0  0  0  0  0  0  0
    1.5130    3.6490   10.0370 C   0  0  0  0  0  0  0  0  0  0  0  0
    0.7320    4.3640    9.1590 C   0  0  0  0  0  0  0  0  0  0  0  0
   -0.5460    4.2590    9.6010 N   0  0  0  0  0  0  0  0  0  0  0  0
   -0.5920    3.5170   10.7050 N   0  0  0  0  0  0  0  0  0  0  0  0
    0.6660    3.1430   10.9730 C   0  0  0  0  0  0  0  0  0  0  0  0
    1.1150    2.3570   12.0300 C   0  0  0  0  0  0  0  0  0  0  0  0
   -2.2040   -2.4460   14.4460 C   0  0  0  0  0  0  0  0  0  0  0  0
   -1.6060   -1.2980   13.9010 C   0  0  0  0  0  0  0  0  0  0  0  0
   -0.2840   -0.9700   14.2120 C   0  0  0  0  0  0  0  0  0  0  0  0
    0.4660   -1.7820   15.0740 C   0  0  0  0  0  0  0  0  0  0  0  0
   -0.1260   -2.9250   15.6200 C   0  0  0  0  0  0  0  0  0  0  0  0
   -1.4480   -3.2550   15.3100 C   0  0  0  0  0  0  0  0  0  0  0  0
   -3.5680   -2.7860   14.1260 N   0  0  0  0  0  0  0  0  0  0  0  0
   -4.0950   -2.5740   12.7860 C   0  0  0  0  0  0  0  0  0  0  0  0
   -4.4390   -3.4470   15.0900 C   0  0  0  0  0  0  0  0  0  0  0  0
   -5.3280   -2.4270   15.7790 C   0  0  0  0  0  0  0  0  0  0  0  0
   -4.7280   -2.0190   16.9700 O   0  0  0  0  0  0  0  0  0  0  0  0
    2.2408   -2.0359   16.1776 H   0  0  0  0  0  0  0  0  0  0  0  0
    5.0135    2.1841   13.2499 H   0  0  0  0  0  0  0  0  0  0  0  0
    6.8136    1.2128   15.1208 H   0  0  0  0  0  0  0  0  0  0  0  0
    6.6261   -0.7072   16.9876 H   0  0  0  0  0  0  0  0  0  0  0  0
    4.4522    2.4166   11.1890 H   0  0  0  0  0  0  0  0  0  0  0  0
    3.5546    3.8323    9.3057 H   0  0  0  0  0  0  0  0  0  0  0  0
    1.0769    4.9140    8.2710 H   0  0  0  0  0  0  0  0  0  0  0  0
   -1.4331    3.2766   11.2487 H   0  0  0  0  0  0  0  0  0  0  0  0
    0.4147    1.9561   12.7776 H   0  0  0  0  0  0  0  0  0  0  0  0
   -2.1834   -0.6517   13.2236 H   0  0  0  0  0  0  0  0  0  0  0  0
    0.1716   -0.0681   13.7773 H   0  0  0  0  0  0  0  0  0  0  0  0
    0.4530   -3.5689   16.2983 H   0  0  0  0  0  0  0  0  0  0  0  0
   -1.9010   -4.1572   15.7469 H   0  0  0  0  0  0  0  0  0  0  0  0
   -5.1136   -2.1642   12.8532 H   0  0  0  0  0  0  0  0  0  0  0  0
   -3.4496   -1.8655   12.2460 H   0  0  0  0  0  0  0  0  0  0  0  0
   -4.1200   -3.5320   12.2460 H   0  0  0  0  0  0  0  0  0  0  0  0
   -5.0678   -4.1826   14.5670 H   0  0  0  0  0  0  0  0  0  0  0  0
   -3.8198   -3.9522   15.8459 H   0  0  0  0  0  0  0  0  0  0  0  0
   -5.4663   -1.5566   15.1208 H   0  0  0  0  0  0  0  0  0  0  0  0
   -6.3064   -2.8800   15.9969 H   0  0  0  0  0  0  0  0  0  0  0  0
   -5.2452   -2.3707   17.7374 H   0  0  0  0  0  0  0  0  0  0  0  0
  1  2  1  0
  1 23  1  0
  2 10  1  0
  2  3  2  0
  3  4  1  0
  4  5  2  0
  4 11  1  0
  5  6  1  0
  6 10  1  0
  6  7  1  0
  7  8  2  0
  8  9  1  0
  9 10  2  0
 11 12  2  0
 11 19  1  0
 12 13  1  0
 13 14  2  0
 14 18  1  0
 14 15  1  0
 15 16  2  0
 16 17  1  0
 17 18  1  0
 18 19  2  0
 20 25  2  0
 20 21  1  0
 20 26  1  0
 21 22  2  0
 22 23  1  0
 23 24  2  0
 24 25  1  0
 26 28  1  0
 26 27  1  0
 28 29  1  0
 29 30  1  0
  1 31  1  0
  5 32  1  0
  7 33  1  0
  8 34  1  0
 12 35  1  0
 13 36  1  0
 15 37  1  0
 17 38  1  0
 19 39  1  0
 21 40  1  0
 22 41  1  0
 24 42  1  0
 25 43  1  0
 27 44  1  0
 27 45  1  0
 27 46  1  0
 28 47  1  0
 28 48  1  0
 29 49  1  0
 29 50  1  0
 30 51  1  0
M  END
>  <s_m_entry_id>  (1) 
41

>  <MODEL>  (1) 
1

>  <REMARK>  (1) 
 VINA RESULT:    -8.937      0.000      0.000
 INTER + INTRA:         -12.151
 INTER:                 -11.811
 INTRA:                  -0.340
 UNBOUND:                -0.340
  Name = /scratch/kmzp800/tmpaxeqpudt/tmprtt1behz.pdb
  7 active torsions:
  status: ('A' for Active; 'I' for Inactive)
    1  A    between atoms: O1_1  and  C1_2
    2  A    between atoms: C1_2  and  C2_3
    3  A    between atoms: C2_3  and  N1_4
    4  A    between atoms: N1_4  and  C3_5
    5  A    between atoms: N1_4  and  C22_30
    6  A    between atoms: C6_8  and  N2_9
    7  A    between atoms: C8_12  and  C9_13
                            x       y       z     vdW  Elec       q    Type
                         _______ _______ _______ _____ _____    ______ ____

>  <TORSDO>  (1) 
F 6

>  <grid_id>  (1) 
syk-prepared

>  <grid_path>  (1) 
syk_vina.pdbqt

>  <grid_filename>  (1) 
syk_vina.pdbqt

>  <docking_score>  (1) 
-8.937

>  <compound_name>  (1) 
CHEMBL3265035

>  <index_string>  (1) 
40:0:0

>  <s_m_Source_Path>  (1) 
/projects/mai/users/kmzp800_harry/pmx_colab/docking_jobs/syk/vina_prep/output

>  <s_m_Source_File>  (1) 
ptp1b_docked_conformers.sdf

>  <i_m_Source_File_Index>  (1) 
41

$$$$
