6:0:0
     RDKit          3D

 31 33  0  0  1  0  0  0  0  0999 V2000
  -15.0547  -19.8127  -25.4802 C   0  0  0  0  0  0  0  0  0  0  0  0
  -15.8663  -20.7133  -26.2021 C   0  0  0  0  0  0  0  0  0  0  0  0
  -13.9729  -20.3259  -24.7388 C   0  0  0  0  0  0  0  0  0  0  0  0
  -15.5591  -22.0815  -26.2728 C   0  0  0  0  0  0  0  0  0  0  0  0
  -13.6479  -21.6950  -24.8398 C   0  0  0  0  0  0  0  0  0  0  0  0
  -14.8476  -17.6291  -26.5186 N   0  0  0  0  0  0  0  0  0  0  0  0
  -14.4146  -22.5795  -25.6326 C   0  0  0  0  0  0  0  0  0  0  0  0
  -15.0450  -16.2323  -26.5355 C   0  0  0  0  0  0  0  0  0  0  0  0
  -15.7788  -15.5795  -25.5184 C   0  0  0  0  0  0  0  0  0  0  0  0
  -15.3175  -13.4099  -26.5271 C   0  0  0  0  0  0  0  0  0  0  0  0
  -14.5802  -14.0489  -27.5416 C   0  0  0  0  0  0  0  0  0  0  0  0
  -15.9273  -14.1759  -25.5167 C   0  0  0  0  0  0  0  0  0  0  0  0
  -14.4483  -15.4527  -27.5472 C   0  0  0  0  0  0  0  0  0  0  0  0
  -16.3765  -16.4299  -24.4484 C   0  0  0  0  0  0  0  0  0  0  0  0
  -16.0482  -17.7302  -24.5094 N   0  0  0  0  0  0  0  0  0  0  0  0
  -15.3059  -18.3398  -25.5266 C   0  0  0  0  0  0  0  0  0  0  0  0
  -17.1184  -15.9728  -23.5837 O   0  0  0  0  0  0  0  0  0  0  0  0
  -16.7241  -20.3729  -26.7388 H   0  0  0  0  0  0  0  0  0  0  0  0
  -13.3411  -19.6691  -24.1580 H   0  0  0  0  0  0  0  0  0  0  0  0
  -16.1766  -22.7424  -26.8627 H   0  0  0  0  0  0  0  0  0  0  0  0
  -12.7656  -22.0493  -24.3386 H   0  0  0  0  0  0  0  0  0  0  0  0
  -14.1106  -13.4598  -28.3158 H   0  0  0  0  0  0  0  0  0  0  0  0
  -16.4929  -13.6828  -24.7381 H   0  0  0  0  0  0  0  0  0  0  0  0
  -16.5257  -18.3308  -23.8444 H   0  0  0  0  0  0  0  0  0  0  0  0
  -13.8770  -15.9307  -28.3288 H   0  0  0  0  0  0  0  0  0  0  0  0
  -15.4139  -12.3338  -26.5237 H   0  0  0  0  0  0  0  0  0  0  0  0
  -14.1030  -23.9040  -25.8385 O   0  0  0  0  0  0  0  0  0  0  0  0
  -12.7752  -24.3159  -25.5477 C   0  0  0  0  0  0  0  0  0  0  0  0
  -12.6159  -25.3206  -25.9388 H   0  0  0  0  0  0  0  0  0  0  0  0
  -12.5850  -24.3402  -24.4739 H   0  0  0  0  0  0  0  0  0  0  0  0
  -12.0484  -23.6631  -26.0299 H   0  0  0  0  0  0  0  0  0  0  0  0
  1  2  2  0
  1  3  1  0
  1 16  1  0
  2  4  1  0
  2 18  1  0
  3  5  2  0
  3 19  1  0
  4  7  2  0
  4 20  1  0
  5  7  1  0
  5 21  1  0
  6  8  1  0
  6 16  2  0
  7 27  1  0
  8  9  2  0
  8 13  1  0
  9 12  1  0
  9 14  1  0
 10 11  1  0
 10 12  2  0
 10 26  1  0
 11 13  2  0
 11 22  1  0
 12 23  1  0
 13 25  1  0
 14 15  1  0
 14 17  2  0
 15 16  1  0
 15 24  1  0
 27 28  1  0
 28 29  1  0
 28 30  1  0
 28 31  1  0
M  END
>  <s_m_entry_id>  (1) 
421

>  <Name>  (1) 
1b

>  <IC50[nM]>  (1) 
52

>  <s_m_Source_Path>  (1) 
/projects/mai/users/kmzp800_harry/pmx_colab/docking_jobs/tnks2

>  <s_m_Source_File>  (1) 
tnks2_lig.sdf

>  <i_m_Source_File_Index>  (1) 
7

>  <s_m_job_name>  (1) 
glide-dock_SP_tnks2_no_cons

>  <r_i_docking_score>  (1) 
-10.5506729918932

>  <r_i_glide_gscore>  (1) 
-10.5506729918932

>  <r_i_glide_emodel>  (1) 
-65.4367934358869

>  <index_string>  (1) 
6:0:0

$$$$
