13:0:0
     RDKit          3D

 42 43  0  0  1  0  0  0  0  0999 V2000
   41.4227   17.4866   11.7912 O   0  0  0  0  0  0  0  0  0  0  0  0
   40.5224   17.1353   12.5915 C   0  0  0  0  0  0  0  0  0  0  0  0
   39.3219   17.4863   12.4978 O   0  0  0  0  0  0  0  0  0  0  0  0
   40.8846   16.2328   13.7804 C   0  0  0  0  0  0  0  0  0  0  0  0
   42.1994   15.6982   13.6757 O   0  0  0  0  0  0  0  0  0  0  0  0
   42.5464   14.8995   14.7126 C   0  0  0  0  0  0  0  0  0  0  0  0
   42.1538   13.5544   14.8775 C   0  0  0  0  0  0  0  0  0  0  0  0
   40.9839   12.7139   13.6686 Br  0  0  0  0  0  0  0  0  0  0  0  0
   42.6063   12.9174   15.9997 C   0  0  0  0  0  0  0  0  0  0  0  0
   43.6125   13.9933   16.9107 S   0  0  0  0  0  0  0  0  0  0  0  0
   43.3343   15.2888   15.7605 C   0  0  0  0  0  0  0  0  0  0  0  0
   43.9290   16.5755   16.0865 C   0  0  0  0  0  0  0  0  0  0  0  0
   43.7850   17.5337   15.2939 O   0  0  0  0  0  0  0  0  0  0  0  0
   44.5699   16.6818   17.1472 O   0  0  0  0  0  0  0  0  0  0  0  0
   42.3461   11.5661   16.4809 C   0  0  0  0  0  0  0  0  0  0  0  0
   43.3921   10.7807   17.0095 C   0  0  0  0  0  0  0  0  0  0  0  0
   43.1572    9.4650   17.4374 C   0  0  0  0  0  0  0  0  0  0  0  0
   41.8690    8.9146   17.3313 C   0  0  0  0  0  0  0  0  0  0  0  0
   40.8084    9.6873   16.7987 C   0  0  0  0  0  0  0  0  0  0  0  0
   41.0511   11.0077   16.3954 C   0  0  0  0  0  0  0  0  0  0  0  0
   39.4980    9.1576   16.6648 N   0  0  0  0  0  0  0  0  0  0  0  0
   38.8866    8.3170   17.5180 C   0  0  0  0  0  0  0  0  0  0  0  0
   39.3293    8.0028   18.6219 O   0  0  0  0  0  0  0  0  0  0  0  0
   37.7077    7.8803   17.0500 N   0  0  0  0  0  0  0  0  0  0  0  0
   36.8147    6.9715   17.7653 C   0  0  0  0  0  0  0  0  0  0  0  0
   35.9778    6.1799   16.7491 C   0  0  0  0  0  0  0  0  0  0  0  0
   35.9473    7.7551   18.7636 C   0  0  0  0  0  0  0  0  0  0  0  0
   40.7784   16.8060   14.7044 H   0  0  0  0  0  0  0  0  0  0  0  0
   40.1704   15.4132   13.8246 H   0  0  0  0  0  0  0  0  0  0  0  0
   44.3903   11.1836   17.0734 H   0  0  0  0  0  0  0  0  0  0  0  0
   43.9650    8.8723   17.8404 H   0  0  0  0  0  0  0  0  0  0  0  0
   41.7076    7.8974   17.6650 H   0  0  0  0  0  0  0  0  0  0  0  0
   40.2322   11.6014   16.0246 H   0  0  0  0  0  0  0  0  0  0  0  0
   38.9802    9.4656   15.8551 H   0  0  0  0  0  0  0  0  0  0  0  0
   37.4177    8.1668   16.1285 H   0  0  0  0  0  0  0  0  0  0  0  0
   37.4121    6.2486   18.3271 H   0  0  0  0  0  0  0  0  0  0  0  0
   35.2956    5.4906   17.2484 H   0  0  0  0  0  0  0  0  0  0  0  0
   35.3838    6.8367   16.1141 H   0  0  0  0  0  0  0  0  0  0  0  0
   36.6198    5.5828   16.0996 H   0  0  0  0  0  0  0  0  0  0  0  0
   35.2413    7.1026   19.2790 H   0  0  0  0  0  0  0  0  0  0  0  0
   36.5662    8.2285   19.5271 H   0  0  0  0  0  0  0  0  0  0  0  0
   35.3836    8.5432   18.2687 H   0  0  0  0  0  0  0  0  0  0  0  0
  1  2  2  0
  2  3  1  0
  2  4  1  0
  4  5  1  0
  4 28  1  0
  4 29  1  0
  5  6  1  0
  6 11  2  0
  6  7  1  0
  7  8  1  0
  7  9  2  0
  9 10  1  0
  9 15  1  0
 10 11  1  0
 11 12  1  0
 12 13  2  0
 12 14  1  0
 15 20  1  0
 15 16  2  0
 16 17  1  0
 16 30  1  0
 17 18  2  0
 17 31  1  0
 18 19  1  0
 18 32  1  0
 19 20  2  0
 19 21  1  0
 20 33  1  0
 21 22  1  0
 21 34  1  0
 22 23  2  0
 22 24  1  0
 24 25  1  0
 24 35  1  0
 25 26  1  0
 25 27  1  0
 25 36  1  0
 26 37  1  0
 26 38  1  0
 26 39  1  0
 27 40  1  0
 27 41  1  0
 27 42  1  0
M  CHG  2   3  -1  14  -1
M  END
>  <s_m_entry_id>  (1) 
488

>  <i_f3d_flags>  (1) 
0

>  <r_epik_Ionization_Penalty>  (1) 
  0.0001

>  <r_epik_State_Penalty>  (1) 
  0.0000

>  <i_epik_Tot_Q>  (1) 
-2

>  <s_m_job_name>  (1) 
glide-dock_SP_ptp1b_core_cons

>  <r_lp_tautomer_probability>  (1) 
1

>  <r_i_docking_score>  (1) 
-6.49212701748119

>  <r_i_glide_gscore>  (1) 
-6.49212701748119

>  <r_i_glide_emodel>  (1) 
-85.3972569241461

>  <index_string>  (1) 
13:0:0

$$$$
