23:0:0
     RDKit          3D

 41 43  0  0  1  0  0  0  0  0999 V2000
  -14.4477  -14.7360  -27.6532 C   0  0  0  0  0  0  0  0  0  0  0  0
  -15.0408  -15.5785  -26.6790 C   0  0  0  0  0  0  0  0  0  0  0  0
  -14.5685  -13.3312  -27.5293 C   0  0  0  0  0  0  0  0  0  0  0  0
  -15.7558  -15.0083  -25.5989 C   0  0  0  0  0  0  0  0  0  0  0  0
  -14.8482  -16.9748  -26.7473 N   0  0  0  0  0  0  0  0  0  0  0  0
  -15.2492  -12.7763  -26.4318 C   0  0  0  0  0  0  0  0  0  0  0  0
  -15.8615  -13.6079  -25.4744 C   0  0  0  0  0  0  0  0  0  0  0  0
  -16.3541  -15.9440  -24.5911 C   0  0  0  0  0  0  0  0  0  0  0  0
  -16.1359  -17.2423  -24.8129 N   0  0  0  0  0  0  0  0  0  0  0  0
  -16.9919  -15.5727  -23.6161 O   0  0  0  0  0  0  0  0  0  0  0  0
  -15.3675  -17.7675  -25.8503 C   0  0  0  0  0  0  0  0  0  0  0  0
  -15.1977  -19.2497  -25.9342 C   0  0  0  0  0  0  0  0  0  0  0  0
  -15.4330  -20.0887  -24.8217 C   0  0  0  0  0  0  0  0  0  0  0  0
  -15.2077  -21.4778  -24.9097 C   0  0  0  0  0  0  0  0  0  0  0  0
  -14.7619  -22.0560  -26.1196 C   0  0  0  0  0  0  0  0  0  0  0  0
  -14.5572  -21.2106  -27.2264 C   0  0  0  0  0  0  0  0  0  0  0  0
  -14.7803  -19.8344  -27.1405 C   0  0  0  0  0  0  0  0  0  0  0  0
  -14.4651  -23.5527  -26.2151 C   0  0  0  0  0  0  0  0  0  0  0  0
  -14.1842  -23.9792  -27.5351 O   0  0  0  0  0  0  0  0  0  0  0  0
  -15.6946  -24.3728  -25.7941 C   0  0  0  0  0  0  0  0  0  0  0  0
  -13.2063  -23.8732  -25.3901 C   0  0  0  0  0  0  0  0  0  0  0  0
  -13.7028  -15.3383  -28.6436 O   0  0  0  0  0  0  0  0  0  0  0  0
  -12.9650  -14.5446  -29.5651 C   0  0  0  0  0  0  0  0  0  0  0  0
  -14.1288  -12.6481  -28.2407 H   0  0  0  0  0  0  0  0  0  0  0  0
  -15.3052  -11.7031  -26.3386 H   0  0  0  0  0  0  0  0  0  0  0  0
  -16.3944  -13.1707  -24.6408 H   0  0  0  0  0  0  0  0  0  0  0  0
  -16.5810  -17.8881  -24.1729 H   0  0  0  0  0  0  0  0  0  0  0  0
  -15.7553  -19.6789  -23.8760 H   0  0  0  0  0  0  0  0  0  0  0  0
  -15.3648  -22.0919  -24.0356 H   0  0  0  0  0  0  0  0  0  0  0  0
  -14.1889  -21.5727  -28.1665 H   0  0  0  0  0  0  0  0  0  0  0  0
  -14.5853  -19.2260  -28.0125 H   0  0  0  0  0  0  0  0  0  0  0  0
  -13.9909  -24.9038  -27.5164 H   0  0  0  0  0  0  0  0  0  0  0  0
  -15.9329  -24.2369  -24.7396 H   0  0  0  0  0  0  0  0  0  0  0  0
  -15.5603  -25.4398  -25.9618 H   0  0  0  0  0  0  0  0  0  0  0  0
  -16.5712  -24.0752  -26.3705 H   0  0  0  0  0  0  0  0  0  0  0  0
  -13.3755  -23.7264  -24.3230 H   0  0  0  0  0  0  0  0  0  0  0  0
  -12.8482  -24.8910  -25.5392 H   0  0  0  0  0  0  0  0  0  0  0  0
  -12.3892  -23.2129  -25.6791 H   0  0  0  0  0  0  0  0  0  0  0  0
  -12.1671  -15.1714  -29.9719 H   0  0  0  0  0  0  0  0  0  0  0  0
  -13.6048  -14.2167  -30.3850 H   0  0  0  0  0  0  0  0  0  0  0  0
  -12.4703  -13.6747  -29.1386 H   0  0  0  0  0  0  0  0  0  0  0  0
  1  2  2  0
  1  3  1  0
  1 22  1  0
  2  4  1  0
  2  5  1  0
  3  6  2  0
  3 24  1  0
  4  7  2  0
  4  8  1  0
  5 11  2  0
  6  7  1  0
  6 25  1  0
  7 26  1  0
  8  9  1  0
  8 10  2  0
  9 11  1  0
  9 27  1  0
 11 12  1  0
 12 13  2  0
 12 17  1  0
 13 14  1  0
 13 28  1  0
 14 15  2  0
 14 29  1  0
 15 16  1  0
 15 18  1  0
 16 17  2  0
 16 30  1  0
 17 31  1  0
 18 19  1  0
 18 20  1  0
 18 21  1  0
 19 32  1  0
 20 33  1  0
 20 34  1  0
 20 35  1  0
 21 36  1  0
 21 37  1  0
 21 38  1  0
 22 23  1  0
 23 39  1  0
 23 40  1  0
 23 41  1  0
M  END
>  <s_m_entry_id>  (1) 
465

>  <Name>  (1) 
5h

>  <IC50[nM]>  (1) 
43

>  <s_m_Source_Path>  (1) 
/projects/mai/users/kmzp800_harry/pmx_colab/docking_jobs/tnks2

>  <s_m_Source_File>  (1) 
tnks2_lig.sdf

>  <i_m_Source_File_Index>  (1) 
24

>  <s_m_job_name>  (1) 
glide-dock_SP_tnks2_core_const

>  <r_i_docking_score>  (1) 
-10.371368686834

>  <r_i_glide_gscore>  (1) 
-10.371368686834

>  <r_i_glide_emodel>  (1) 
-48.6985040607174

>  <index_string>  (1) 
23:0:0

$$$$
