29:0:0
     RDKit          3D

 56 59  0  0  1  0  0  0  0  0999 V2000
   34.3295   35.0640   21.1989 C   0  0  0  0  0  0  0  0  0  0  0  0
   33.9954   39.0032   23.8498 C   0  0  0  0  0  0  0  0  0  0  0  0
   34.7394   37.8791   21.5269 C   0  0  0  0  0  0  0  0  0  0  0  0
   35.1473   37.2036   20.2994 C   0  0  0  0  0  0  0  0  0  0  0  0
   34.1420   37.1098   22.5436 C   0  0  0  0  0  0  0  0  0  0  0  0
   34.9097   39.2575   21.7783 C   0  0  0  0  0  0  0  0  0  0  0  0
   34.9686   35.8699   20.1557 C   0  0  0  0  0  0  0  0  0  0  0  0
   34.5364   39.8219   22.9495 N   0  0  0  0  0  0  0  0  0  0  0  0
   34.1529   33.8558   21.0406 O   0  0  0  0  0  0  0  0  0  0  0  0
   33.9434   35.7080   22.3382 N   0  0  0  0  0  0  0  0  0  0  0  0
   33.7824   37.7023   23.6980 N   0  0  0  0  0  0  0  0  0  0  0  0
   33.6586   39.5497   25.0689 N   0  0  0  0  0  0  0  0  0  0  0  0
   35.5850   37.8096   19.5192 H   0  0  0  0  0  0  0  0  0  0  0  0
   35.3615   39.9097   21.0470 H   0  0  0  0  0  0  0  0  0  0  0  0
   33.8053   40.5468   25.1872 H   0  0  0  0  0  0  0  0  0  0  0  0
   33.2486   34.9549   23.4080 C   0  0  0  0  0  0  0  0  0  0  0  0
   32.4048   35.5368   23.7840 H   0  0  0  0  0  0  0  0  0  0  0  0
   32.7628   34.0709   22.9919 H   0  0  0  0  0  0  0  0  0  0  0  0
   34.1552   34.5107   24.5891 C   0  0  0  0  0  0  0  0  0  0  0  0
   34.4098   35.6148   25.4270 O   0  0  0  0  0  0  0  0  0  0  0  0
   34.2725   36.4088   24.9164 H   0  0  0  0  0  0  0  0  0  0  0  0
   35.5255   33.9506   24.1846 C   0  0  0  0  0  0  0  0  0  0  0  0
   35.4251   33.1493   23.4565 H   0  0  0  0  0  0  0  0  0  0  0  0
   36.1512   34.7298   23.7491 H   0  0  0  0  0  0  0  0  0  0  0  0
   36.0645   33.5523   25.0454 H   0  0  0  0  0  0  0  0  0  0  0  0
   33.3689   33.5493   25.4903 C   0  0  0  0  0  0  0  0  0  0  0  0
   32.9522   32.7240   24.9183 H   0  0  0  0  0  0  0  0  0  0  0  0
   33.9961   33.1327   26.2788 H   0  0  0  0  0  0  0  0  0  0  0  0
   32.5266   34.0510   25.9684 H   0  0  0  0  0  0  0  0  0  0  0  0
   33.1916   38.4336   28.6780 C   0  0  0  0  0  0  0  0  0  0  0  0
   33.7893   39.2419   27.5169 C   0  0  0  0  0  0  0  0  0  0  0  0
   33.1188   38.8161   26.2080 C   0  0  0  0  0  0  0  0  0  0  0  0
   31.5998   38.9837   26.3370 C   0  0  0  0  0  0  0  0  0  0  0  0
   31.0968   38.2038   27.5648 C   0  0  0  0  0  0  0  0  0  0  0  0
   31.7822   38.6467   28.7336 O   0  0  0  0  0  0  0  0  0  0  0  0
   33.4080   37.3697   28.5676 H   0  0  0  0  0  0  0  0  0  0  0  0
   33.6323   38.7520   29.6229 H   0  0  0  0  0  0  0  0  0  0  0  0
   34.8660   39.0756   27.4647 H   0  0  0  0  0  0  0  0  0  0  0  0
   33.6386   40.3084   27.6927 H   0  0  0  0  0  0  0  0  0  0  0  0
   33.3192   37.7548   26.0899 H   0  0  0  0  0  0  0  0  0  0  0  0
   31.3517   40.0403   26.4418 H   0  0  0  0  0  0  0  0  0  0  0  0
   31.0979   38.6261   25.4372 H   0  0  0  0  0  0  0  0  0  0  0  0
   31.2485   37.1319   27.4301 H   0  0  0  0  0  0  0  0  0  0  0  0
   30.0252   38.3514   27.7005 H   0  0  0  0  0  0  0  0  0  0  0  0
   35.2946   35.1748   19.0176 O   0  0  0  0  0  0  0  0  0  0  0  0
   37.8272   36.5824   16.0004 C   0  0  0  0  0  0  0  0  0  0  0  0
   38.3632   36.3493   17.2848 C   0  0  0  0  0  0  0  0  0  0  0  0
   37.5112   35.9678   18.3420 C   0  0  0  0  0  0  0  0  0  0  0  0
   36.1523   35.6765   18.0767 C   0  0  0  0  0  0  0  0  0  0  0  0
   35.6821   35.7671   16.7607 C   0  0  0  0  0  0  0  0  0  0  0  0
   36.4846   36.2900   15.7387 C   0  0  0  0  0  0  0  0  0  0  0  0
   38.5677   37.1497   15.0301 F   0  0  0  0  0  0  0  0  0  0  0  0
   39.3970   36.5880   17.4888 H   0  0  0  0  0  0  0  0  0  0  0  0
   37.9996   35.9022   19.6009 F   0  0  0  0  0  0  0  0  0  0  0  0
   34.6527   35.5177   16.5478 H   0  0  0  0  0  0  0  0  0  0  0  0
   36.0725   36.4720   14.7571 H   0  0  0  0  0  0  0  0  0  0  0  0
  1  7  1  0
  1  9  2  0
  1 10  1  0
  2  8  1  0
  2 11  2  0
  2 12  1  0
  3  4  1  0
  3  5  2  0
  3  6  1  0
  4  7  2  0
  4 13  1  0
  5 10  1  0
  5 11  1  0
  6  8  2  0
  6 14  1  0
  7 45  1  0
 10 16  1  0
 12 15  1  0
 12 32  1  0
 16 17  1  0
 16 18  1  0
 16 19  1  0
 19 20  1  0
 19 22  1  0
 19 26  1  0
 20 21  1  0
 22 23  1  0
 22 24  1  0
 22 25  1  0
 26 27  1  0
 26 28  1  0
 26 29  1  0
 30 31  1  0
 30 35  1  0
 30 36  1  0
 30 37  1  0
 31 32  1  0
 31 38  1  0
 31 39  1  0
 32 33  1  0
 32 40  1  0
 33 34  1  0
 33 41  1  0
 33 42  1  0
 34 35  1  0
 34 43  1  0
 34 44  1  0
 45 49  1  0
 46 47  2  0
 46 51  1  0
 46 52  1  0
 47 48  1  0
 47 53  1  0
 48 49  2  0
 48 54  1  0
 49 50  1  0
 50 51  2  0
 50 55  1  0
 51 56  1  0
M  END
>  <s_m_entry_id>  (1) 
847

>  <s_m_Source_Path>  (1) 
/projects/mai/users/kmzp800_harry/pmx_colab/docking_jobs/p38/glide-dock_SP_p38_mcs_docking_2

>  <s_m_Source_File>  (1) 
glide-dock_SP_p38_mcs_docking_2_pv.maegz

>  <i_m_Source_File_Index>  (1) 
31

>  <s_pdb_PDB_TITLE>  (1) 
MX MODEL

>  <r_i_docking_score>  (1) 
-6.88872289827319

>  <r_i_glide_gscore>  (1) 
-6.88872289827319

>  <r_i_glide_emodel>  (1) 
-43.4480746094941

>  <index_string>  (1) 
29:0:0

$$$$
