9:0:0
     RDKit          3D

 54 57  0  0  1  0  0  0  0  0999 V2000
   32.6090   35.4780   22.4050 N   0  0  0  0  0  0  0  0  0  0  0  0
   32.8310   35.2020   21.0780 C   0  0  0  0  0  0  0  0  0  0  0  0
   32.2090   34.2610   20.5110 O   0  0  0  0  0  0  0  0  0  0  0  0
   33.7480   35.9600   20.3350 C   0  0  0  0  0  0  0  0  0  0  0  0
   34.4050   37.0300   20.9520 C   0  0  0  0  0  0  0  0  0  0  0  0
   34.1530   37.3180   22.2860 C   0  0  0  0  0  0  0  0  0  0  0  0
   34.7860   38.3810   22.9240 C   0  0  0  0  0  0  0  0  0  0  0  0
   34.5100   38.6450   24.2280 N   0  0  0  0  0  0  0  0  0  0  0  0
   33.6210   37.8840   24.9250 C   0  0  0  0  0  0  0  0  0  0  0  0
   33.3360   38.1710   26.2960 N   0  0  0  0  0  0  0  0  0  0  0  0
   32.9950   36.8420   24.3160 N   0  0  0  0  0  0  0  0  0  0  0  0
   33.2420   36.5330   23.0120 C   0  0  0  0  0  0  0  0  0  0  0  0
   33.9930   39.2410   27.0350 C   0  0  0  0  0  0  0  0  0  0  0  0
   35.2930   38.7240   27.6700 C   0  0  0  0  0  0  0  0  0  0  0  0
   35.0590   38.0660   29.0390 C   0  0  0  0  0  0  0  0  0  0  0  0
   33.6970   37.7810   29.2430 O   0  0  0  0  0  0  0  0  0  0  0  0
   33.0670   39.0260   29.4050 C   0  0  0  0  0  0  0  0  0  0  0  0
   33.0250   39.8060   28.0820 C   0  0  0  0  0  0  0  0  0  0  0  0
   31.6630   34.6560   23.1700 C   0  0  0  0  0  0  0  0  0  0  0  0
   32.3390   33.4550   23.8390 C   0  0  0  0  0  0  0  0  0  0  0  0
   32.1080   32.2850   23.1130 O   0  0  0  0  0  0  0  0  0  0  0  0
   31.8800   33.2810   25.2770 C   0  0  0  0  0  0  0  0  0  0  0  0
   31.6030   34.5270   25.8410 O   0  0  0  0  0  0  0  0  0  0  0  0
   33.9530   35.6600   18.9790 O   0  0  0  0  0  0  0  0  0  0  0  0
   35.1900   35.7140   18.3210 C   0  0  0  0  0  0  0  0  0  0  0  0
   36.3400   35.9540   19.0810 C   0  0  0  0  0  0  0  0  0  0  0  0
   37.5930   36.0250   18.4670 C   0  0  0  0  0  0  0  0  0  0  0  0
   37.7030   35.8630   17.0840 C   0  0  0  0  0  0  0  0  0  0  0  0
   38.9180   35.9310   16.4890 F   0  0  0  0  0  0  0  0  0  0  0  0
   36.5580   35.6490   16.3130 C   0  0  0  0  0  0  0  0  0  0  0  0
   35.3020   35.5750   16.9220 C   0  0  0  0  0  0  0  0  0  0  0  0
   34.2020   35.4290   16.1450 F   0  0  0  0  0  0  0  0  0  0  0  0
   35.1194   37.6414   20.3813 H   0  0  0  0  0  0  0  0  0  0  0  0
   35.5067   39.0047   22.3748 H   0  0  0  0  0  0  0  0  0  0  0  0
   32.6346   37.5954   26.7834 H   0  0  0  0  0  0  0  0  0  0  0  0
   34.2672   40.0575   26.3508 H   0  0  0  0  0  0  0  0  0  0  0  0
   35.7446   37.9822   26.9948 H   0  0  0  0  0  0  0  0  0  0  0  0
   35.9562   39.5880   27.8238 H   0  0  0  0  0  0  0  0  0  0  0  0
   35.6326   37.1287   29.0887 H   0  0  0  0  0  0  0  0  0  0  0  0
   35.3882   38.7658   29.8213 H   0  0  0  0  0  0  0  0  0  0  0  0
   32.0380   38.8637   29.7583 H   0  0  0  0  0  0  0  0  0  0  0  0
   33.6412   39.6134   30.1366 H   0  0  0  0  0  0  0  0  0  0  0  0
   33.2939   40.8538   28.2817 H   0  0  0  0  0  0  0  0  0  0  0  0
   32.0064   39.7198   27.6758 H   0  0  0  0  0  0  0  0  0  0  0  0
   31.2022   35.2809   23.9492 H   0  0  0  0  0  0  0  0  0  0  0  0
   30.9115   34.2682   22.4665 H   0  0  0  0  0  0  0  0  0  0  0  0
   33.4205   33.6556   23.8513 H   0  0  0  0  0  0  0  0  0  0  0  0
   31.9594   31.5323   23.7387 H   0  0  0  0  0  0  0  0  0  0  0  0
   30.9714   32.6612   25.2974 H   0  0  0  0  0  0  0  0  0  0  0  0
   32.6774   32.7909   25.8550 H   0  0  0  0  0  0  0  0  0  0  0  0
   31.6194   34.4534   26.8281 H   0  0  0  0  0  0  0  0  0  0  0  0
   36.2570   36.0877   20.1697 H   0  0  0  0  0  0  0  0  0  0  0  0
   38.4927   36.2085   19.0726 H   0  0  0  0  0  0  0  0  0  0  0  0
   36.6451   35.5383   15.2221 H   0  0  0  0  0  0  0  0  0  0  0  0
  1 12  1  0
  1 19  1  0
  1  2  1  0
  2  3  2  0
  2  4  1  0
  4  5  2  0
  4 24  1  0
  5  6  1  0
  6  7  1  0
  6 12  2  0
  7  8  2  0
  8  9  1  0
  9 10  1  0
  9 11  2  0
 10 13  1  0
 11 12  1  0
 13 14  1  0
 13 18  1  0
 14 15  1  0
 15 16  1  0
 16 17  1  0
 17 18  1  0
 19 20  1  0
 20 22  1  0
 20 21  1  0
 22 23  1  0
 24 25  1  0
 25 26  2  0
 25 31  1  0
 26 27  1  0
 27 28  2  0
 28 29  1  0
 28 30  1  0
 30 31  2  0
 31 32  1  0
  5 33  1  0
  7 34  1  0
 10 35  1  0
 13 36  1  0
 14 37  1  0
 14 38  1  0
 15 39  1  0
 15 40  1  0
 17 41  1  0
 17 42  1  0
 18 43  1  0
 18 44  1  0
 19 45  1  0
 19 46  1  0
 20 47  1  0
 21 48  1  0
 22 49  1  0
 22 50  1  0
 23 51  1  0
 26 52  1  0
 27 53  1  0
 30 54  1  0
M  END
>  <s_m_entry_id>  (1) 
59

>  <MODEL>  (1) 
4

>  <REMARK>  (1) 
 VINA RESULT:    -7.451      1.543      1.938
 INTER + INTRA:         -11.464
 INTER:                 -10.671
 INTRA:                  -0.793
 UNBOUND:                -0.963
  Name = /scratch/kmzp800/tmpccmxu4zk/tmpd64k2tti.pdb
  8 active torsions:
  status: ('A' for Active; 'I' for Inactive)
    1  A    between atoms: O1_1  and  C1_2
    2  A    between atoms: C1_2  and  C2_3
    3  A    between atoms: C2_3  and  O2_4
    4  A    between atoms: C2_3  and  C3_5
    5  A    between atoms: C3_5  and  N1_6
    6  A    between atoms: C5_9  and  O4_10
    7  A    between atoms: O4_10  and  C6_11
    8  A    between atoms: N3_24  and  C16_25
                            x       y       z     vdW  Elec       q    Type
                         _______ _______ _______ _____ _____    ______ ____

>  <TORSDO>  (1) 
F 8

>  <grid_id>  (1) 
p38-prepared

>  <grid_path>  (1) 
/projects/mai/users/kmzp800_harry/pmx_colab/docking_jobs/p38/vina_docking/input_files/p38_vina.pdbqt

>  <grid_filename>  (1) 
p38_vina.pdbqt

>  <docking_score>  (1) 
-7.451

>  <compound_name>  (1) 
lig_p38a_2s

>  <index_string>  (1) 
9:0:0

$$$$
