18:0:0
     RDKit          3D

 53 56  0  0  1  0  0  0  0  0999 V2000
   32.8400   34.5180   22.0400 N   0  0  0  0  0  0  0  0  0  0  0  0
   33.1930   34.4510   20.7150 C   0  0  0  0  0  0  0  0  0  0  0  0
   33.2700   33.3350   20.1320 O   0  0  0  0  0  0  0  0  0  0  0  0
   33.4740   35.6210   19.9920 C   0  0  0  0  0  0  0  0  0  0  0  0
   33.3640   36.8600   20.6330 C   0  0  0  0  0  0  0  0  0  0  0  0
   32.9990   36.9160   21.9710 C   0  0  0  0  0  0  0  0  0  0  0  0
   32.8840   38.1320   22.6370 C   0  0  0  0  0  0  0  0  0  0  0  0
   32.5230   38.1510   23.9450 N   0  0  0  0  0  0  0  0  0  0  0  0
   32.2670   37.0000   24.6240 C   0  0  0  0  0  0  0  0  0  0  0  0
   31.8860   37.0230   26.0040 N   0  0  0  0  0  0  0  0  0  0  0  0
   32.3740   35.8030   23.9870 N   0  0  0  0  0  0  0  0  0  0  0  0
   32.7350   35.7290   22.6750 C   0  0  0  0  0  0  0  0  0  0  0  0
   31.7210   38.2020   26.8540 C   0  0  0  0  0  0  0  0  0  0  0  0
   30.7610   37.9660   28.0270 C   0  0  0  0  0  0  0  0  0  0  0  0
   31.5250   37.5990   29.3000 C   0  0  0  0  0  0  0  0  0  0  0  0
   32.5030   38.5710   29.5690 O   0  0  0  0  0  0  0  0  0  0  0  0
   33.5190   38.3660   28.6230 C   0  0  0  0  0  0  0  0  0  0  0  0
   33.0570   38.8470   27.2470 C   0  0  0  0  0  0  0  0  0  0  0  0
   32.5690   33.2800   22.7770 C   0  0  0  0  0  0  0  0  0  0  0  0
   31.1080   32.8710   22.6380 C   0  0  0  0  0  0  0  0  0  0  0  0
   30.9930   31.3880   22.3450 C   0  0  0  0  0  0  0  0  0  0  0  0
   31.7120   31.0850   21.1900 O   0  0  0  0  0  0  0  0  0  0  0  0
   33.8180   35.5280   18.6340 O   0  0  0  0  0  0  0  0  0  0  0  0
   35.1180   35.6380   18.1240 C   0  0  0  0  0  0  0  0  0  0  0  0
   36.1720   35.8410   19.0210 C   0  0  0  0  0  0  0  0  0  0  0  0
   37.4850   35.9660   18.5570 C   0  0  0  0  0  0  0  0  0  0  0  0
   37.7500   35.8960   17.1880 C   0  0  0  0  0  0  0  0  0  0  0  0
   39.0220   36.0160   16.7380 F   0  0  0  0  0  0  0  0  0  0  0  0
   36.7020   35.7200   16.2810 C   0  0  0  0  0  0  0  0  0  0  0  0
   35.3880   35.5920   16.7410 C   0  0  0  0  0  0  0  0  0  0  0  0
   34.3830   35.4840   15.8370 F   0  0  0  0  0  0  0  0  0  0  0  0
   33.5664   37.7877   20.0777 H   0  0  0  0  0  0  0  0  0  0  0  0
   33.0848   39.0740   22.1056 H   0  0  0  0  0  0  0  0  0  0  0  0
   31.7088   36.1099   26.4464 H   0  0  0  0  0  0  0  0  0  0  0  0
   31.2184   38.9605   26.2359 H   0  0  0  0  0  0  0  0  0  0  0  0
   30.1823   38.8839   28.2076 H   0  0  0  0  0  0  0  0  0  0  0  0
   30.0927   37.1315   27.7684 H   0  0  0  0  0  0  0  0  0  0  0  0
   30.8221   37.5457   30.1444 H   0  0  0  0  0  0  0  0  0  0  0  0
   32.0136   36.6234   29.1600 H   0  0  0  0  0  0  0  0  0  0  0  0
   34.4154   38.9284   28.9234 H   0  0  0  0  0  0  0  0  0  0  0  0
   33.7524   37.2923   28.5706 H   0  0  0  0  0  0  0  0  0  0  0  0
   33.8182   38.5799   26.4992 H   0  0  0  0  0  0  0  0  0  0  0  0
   32.9191   39.9376   27.2872 H   0  0  0  0  0  0  0  0  0  0  0  0
   33.2068   32.4772   22.3787 H   0  0  0  0  0  0  0  0  0  0  0  0
   32.7854   33.4513   23.8418 H   0  0  0  0  0  0  0  0  0  0  0  0
   30.5791   33.0960   23.5759 H   0  0  0  0  0  0  0  0  0  0  0  0
   30.6611   33.4322   21.8042 H   0  0  0  0  0  0  0  0  0  0  0  0
   31.3997   30.8146   23.1910 H   0  0  0  0  0  0  0  0  0  0  0  0
   29.9352   31.1245   22.1979 H   0  0  0  0  0  0  0  0  0  0  0  0
   32.5950   30.7129   21.4390 H   0  0  0  0  0  0  0  0  0  0  0  0
   35.9662   35.9028   20.0998 H   0  0  0  0  0  0  0  0  0  0  0  0
   38.3085   36.1194   19.2700 H   0  0  0  0  0  0  0  0  0  0  0  0
   36.9113   35.6820   15.2018 H   0  0  0  0  0  0  0  0  0  0  0  0
  1 12  1  0
  1 19  1  0
  1  2  1  0
  2  3  2  0
  2  4  1  0
  4  5  2  0
  4 23  1  0
  5  6  1  0
  5 32  1  0
  6  7  1  0
  6 12  2  0
  7  8  2  0
  7 33  1  0
  8  9  1  0
  9 10  1  0
  9 11  2  0
 10 13  1  0
 10 34  1  0
 11 12  1  0
 13 18  1  0
 13 14  1  0
 13 35  1  0
 14 15  1  0
 14 36  1  0
 14 37  1  0
 15 16  1  0
 15 38  1  0
 15 39  1  0
 16 17  1  0
 17 18  1  0
 17 40  1  0
 17 41  1  0
 18 42  1  0
 18 43  1  0
 19 20  1  0
 19 44  1  0
 19 45  1  0
 20 21  1  0
 20 46  1  0
 20 47  1  0
 21 22  1  0
 21 48  1  0
 21 49  1  0
 22 50  1  0
 23 24  1  0
 24 25  2  0
 24 30  1  0
 25 26  1  0
 25 51  1  0
 26 27  2  0
 26 52  1  0
 27 28  1  0
 27 29  1  0
 29 30  2  0
 29 53  1  0
 30 31  1  0
M  END
>  <s_m_entry_id>  (1) 
1373

>  <MODEL>  (1) 
1

>  <REMARK>  (1) 
 VINA RESULT:    -7.925      0.000      0.000
 INTER + INTRA:         -11.909
 INTER:                 -10.936
 INTRA:                  -0.973
 UNBOUND:                -0.973
  Name = /scratch/kmzp800/tmp45dyczxo/tmpdi2few7g.pdb
  7 active torsions:
  status: ('A' for Active; 'I' for Inactive)
    1  A    between atoms: O1_1  and  C1_2
    2  A    between atoms: C1_2  and  C2_3
    3  A    between atoms: C2_3  and  C3_4
    4  A    between atoms: C3_4  and  N1_5
    5  A    between atoms: C5_8  and  O3_9
    6  A    between atoms: O3_9  and  C6_10
    7  A    between atoms: N3_23  and  C16_24
                            x       y       z     vdW  Elec       q    Type
                         _______ _______ _______ _____ _____    ______ ____

>  <TORSDO>  (1) 
F 7

>  <grid_id>  (1) 
p38-prepared

>  <grid_path>  (1) 
/projects/mai/users/kmzp800_harry/pmx_colab/docking_jobs/p38/vina_docking/input_files/p38_vina.pdbqt

>  <grid_filename>  (1) 
p38_vina.pdbqt

>  <docking_score>  (1) 
-7.925

>  <compound_name>  (1) 
lig_p38a_2n

>  <index_string>  (1) 
18:0:0

>  <s_m_Source_Path>  (1) 
/projects/mai/users/kmzp800_harry/pmx_colab/docking_jobs/p38

>  <s_m_Source_File>  (1) 
p38_confs_vina_naive.sdf

>  <i_m_Source_File_Index>  (1) 
20

$$$$
