3:0:0
     RDKit          3D

 48 52  0  0  1  0  0  0  0  0999 V2000
    5.8240   -0.5790   16.3740 C   0  0  0  0  0  0  0  0  0  0  0  0
    4.5410   -1.0100   16.2670 N   0  0  0  0  0  0  0  0  0  0  0  0
    4.0480   -0.2830   15.2500 C   0  0  0  0  0  0  0  0  0  0  0  0
    2.7560   -0.3420   14.7330 C   0  0  0  0  0  0  0  0  0  0  0  0
    1.7900   -1.2470   15.2850 N   0  0  0  0  0  0  0  0  0  0  0  0
    2.4530    0.4860   13.6890 N   0  0  0  0  0  0  0  0  0  0  0  0
    3.3710    1.3540   13.1540 C   0  0  0  0  0  0  0  0  0  0  0  0
    4.6690    1.3920   13.6980 C   0  0  0  0  0  0  0  0  0  0  0  0
    4.9420    0.5610   14.7300 N   0  0  0  0  0  0  0  0  0  0  0  0
    6.0800    0.4020   15.4180 C   0  0  0  0  0  0  0  0  0  0  0  0
    2.9890    2.2280   12.0260 C   0  0  0  0  0  0  0  0  0  0  0  0
    3.9400    2.5410   11.0230 C   0  0  0  0  0  0  0  0  0  0  0  0
    3.6030    3.3710    9.9390 C   0  0  0  0  0  0  0  0  0  0  0  0
    2.3050    3.8720    9.8910 C   0  0  0  0  0  0  0  0  0  0  0  0
    1.7130    4.6930    8.9630 C   0  0  0  0  0  0  0  0  0  0  0  0
    0.4090    4.8530    9.4390 C   0  0  0  0  0  0  0  0  0  0  0  0
    0.2080    4.1720   10.5950 N   0  0  0  0  0  0  0  0  0  0  0  0
    1.3820    3.5800   10.8500 C   0  0  0  0  0  0  0  0  0  0  0  0
    1.6830    2.7610   11.9360 C   0  0  0  0  0  0  0  0  0  0  0  0
    0.4290   -1.4240   14.8660 C   0  0  0  0  0  0  0  0  0  0  0  0
   -0.3030   -2.5750   15.1800 C   0  0  0  0  0  0  0  0  0  0  0  0
   -1.6260   -2.7090   14.7540 C   0  0  0  0  0  0  0  0  0  0  0  0
   -2.2370   -1.6920   14.0050 C   0  0  0  0  0  0  0  0  0  0  0  0
   -1.5100   -0.5350   13.6860 C   0  0  0  0  0  0  0  0  0  0  0  0
   -0.1800   -0.4100   14.1200 C   0  0  0  0  0  0  0  0  0  0  0  0
   -3.5620   -1.8080   13.5690 O   0  0  0  0  0  0  0  0  0  0  0  0
   -4.1290   -3.0440   13.1560 C   0  0  0  0  0  0  0  0  0  0  0  0
   -2.1260    0.4760   12.9380 O   0  0  0  0  0  0  0  0  0  0  0  0
   -1.5510    1.0160   11.7570 C   0  0  0  0  0  0  0  0  0  0  0  0
    6.5545   -0.9499   17.1080 H   0  0  0  0  0  0  0  0  0  0  0  0
    2.1083   -1.8348   16.0687 H   0  0  0  0  0  0  0  0  0  0  0  0
    5.4343    2.0734   13.2980 H   0  0  0  0  0  0  0  0  0  0  0  0
    7.0272    0.9385   15.2600 H   0  0  0  0  0  0  0  0  0  0  0  0
    4.9573    2.1284   11.0935 H   0  0  0  0  0  0  0  0  0  0  0  0
    4.3379    3.6154    9.1578 H   0  0  0  0  0  0  0  0  0  0  0  0
    2.1611    5.1244    8.0558 H   0  0  0  0  0  0  0  0  0  0  0  0
   -0.3609    5.4576    8.9374 H   0  0  0  0  0  0  0  0  0  0  0  0
   -0.6562    4.1214   11.1531 H   0  0  0  0  0  0  0  0  0  0  0  0
    0.9260    2.5356   12.7016 H   0  0  0  0  0  0  0  0  0  0  0  0
    0.1668   -3.3788   15.7659 H   0  0  0  0  0  0  0  0  0  0  0  0
   -2.1926   -3.6173   15.0071 H   0  0  0  0  0  0  0  0  0  0  0  0
    0.3898    0.4971   13.8699 H   0  0  0  0  0  0  0  0  0  0  0  0
   -4.4009   -3.6368   14.0418 H   0  0  0  0  0  0  0  0  0  0  0  0
   -5.0288   -2.8514   12.5533 H   0  0  0  0  0  0  0  0  0  0  0  0
   -3.3961   -3.6004   12.5533 H   0  0  0  0  0  0  0  0  0  0  0  0
   -0.7739    1.7458   12.0281 H   0  0  0  0  0  0  0  0  0  0  0  0
   -1.1020    0.2055   11.1641 H   0  0  0  0  0  0  0  0  0  0  0  0
   -2.3317    1.5149   11.1641 H   0  0  0  0  0  0  0  0  0  0  0  0
  1  2  1  0
  1 10  2  0
  2  3  2  0
  3  4  1  0
  3  9  1  0
  4  5  1  0
  4  6  2  0
  5 20  1  0
  6  7  1  0
  7  8  2  0
  7 11  1  0
  8  9  1  0
  9 10  1  0
 11 12  2  0
 11 19  1  0
 12 13  1  0
 13 14  2  0
 14 18  1  0
 14 15  1  0
 15 16  2  0
 16 17  1  0
 17 18  1  0
 18 19  2  0
 20 21  2  0
 20 25  1  0
 21 22  1  0
 22 23  2  0
 23 24  1  0
 23 26  1  0
 24 25  2  0
 24 28  1  0
 26 27  1  0
 28 29  1  0
  1 30  1  0
  5 31  1  0
  8 32  1  0
 10 33  1  0
 12 34  1  0
 13 35  1  0
 15 36  1  0
 16 37  1  0
 17 38  1  0
 19 39  1  0
 21 40  1  0
 22 41  1  0
 25 42  1  0
 27 43  1  0
 27 44  1  0
 27 45  1  0
 29 46  1  0
 29 47  1  0
 29 48  1  0
M  END
>  <s_m_entry_id>  (1) 
4

>  <MODEL>  (1) 
1

>  <REMARK>  (1) 
 VINA RESULT:    -9.557      0.000      0.000
 INTER + INTRA:         -12.142
 INTER:                 -11.791
 INTRA:                  -0.351
 UNBOUND:                -0.351
  Name = /scratch/kmzp800/tmp2dfhaiow/tmps_f4fw1w.pdb
  6 active torsions:
  status: ('A' for Active; 'I' for Inactive)
    1  A    between atoms: N2_5  and  C4_6
    2  A    between atoms: C7_9  and  O1_10
    3  A    between atoms: O1_10  and  C8_11
    4  A    between atoms: C9_12  and  O2_13
    5  A    between atoms: O2_13  and  C10_14
    6  A    between atoms: C12_17  and  C13_18
                            x       y       z     vdW  Elec       q    Type
                         _______ _______ _______ _____ _____    ______ ____

>  <TORSDO>  (1) 
F 4

>  <grid_id>  (1) 
syk-prepared

>  <grid_path>  (1) 
syk_vina.pdbqt

>  <grid_filename>  (1) 
syk_vina.pdbqt

>  <docking_score>  (1) 
-9.557

>  <compound_name>  (1) 
CHEMBL3265016

>  <index_string>  (1) 
3:0:0

>  <s_m_Source_Path>  (1) 
/projects/mai/users/kmzp800_harry/pmx_colab/docking_jobs/syk/vina_prep/output

>  <s_m_Source_File>  (1) 
ptp1b_docked_conformers.sdf

>  <i_m_Source_File_Index>  (1) 
4

$$$$
