26:0:0
     RDKit          3D

 60 64  0  0  1  0  0  0  0  0999 V2000
   -4.4811   -3.3477   14.2351 C   0  0  0  0  0  0  0  0  0  0  0  0
   -3.8320   -2.1280   13.9156 O   0  0  0  0  0  0  0  0  0  0  0  0
   -2.4958   -1.9837   14.2298 C   0  0  0  0  0  0  0  0  0  0  0  0
   -1.7138   -2.9850   14.8479 C   0  0  0  0  0  0  0  0  0  0  0  0
   -0.3676   -2.7477   15.1661 C   0  0  0  0  0  0  0  0  0  0  0  0
    0.2429   -1.5153   14.8637 C   0  0  0  0  0  0  0  0  0  0  0  0
    1.5847   -1.3329   15.2311 N   0  0  0  0  0  0  0  0  0  0  0  0
    2.5317   -0.4175   14.7315 C   0  0  0  0  0  0  0  0  0  0  0  0
    2.1970    0.4034   13.7672 N   0  0  0  0  0  0  0  0  0  0  0  0
    3.1191    1.2658   13.2367 C   0  0  0  0  0  0  0  0  0  0  0  0
    4.4282    1.3021   13.6936 C   0  0  0  0  0  0  0  0  0  0  0  0
    4.7606    0.4884   14.7347 N   0  0  0  0  0  0  0  0  0  0  0  0
    5.9127    0.3728   15.4896 C   0  0  0  0  0  0  0  0  0  0  0  0
    5.6022   -0.4918   16.5163 C   0  0  0  0  0  0  0  0  0  0  0  0
    4.3733   -1.0718   16.3337 N   0  0  0  0  0  0  0  0  0  0  0  0
    3.8365   -0.4155   15.2952 C   0  0  0  0  0  0  0  0  0  0  0  0
    2.6607    2.2059   12.1768 C   0  0  0  0  0  0  0  0  0  0  0  0
    3.5375    2.6907   11.1755 C   0  0  0  0  0  0  0  0  0  0  0  0
    3.0747    3.4875   10.1145 C   0  0  0  0  0  0  0  0  0  0  0  0
    1.7137    3.8285   10.0286 C   0  0  0  0  0  0  0  0  0  0  0  0
    0.8145    3.3948   11.0307 C   0  0  0  0  0  0  0  0  0  0  0  0
    1.2984    2.6101   12.1052 C   0  0  0  0  0  0  0  0  0  0  0  0
   -0.6452    3.7228   10.9088 C   0  0  0  0  0  0  0  0  0  0  0  0
   -1.2311    3.5170    9.8447 O   0  0  0  0  0  0  0  0  0  0  0  0
   -1.1941    4.2535   12.0150 N   0  0  0  0  0  0  0  0  0  0  0  0
   -2.5078    4.7579   12.2115 C   0  0  0  0  0  0  0  0  0  0  0  0
   -2.7249    5.4868   13.3935 C   0  0  0  0  0  0  0  0  0  0  0  0
   -3.9985    6.0056   13.6867 C   0  0  0  0  0  0  0  0  0  0  0  0
   -5.0649    5.8352   12.7920 C   0  0  0  0  0  0  0  0  0  0  0  0
   -4.8587    5.0860   11.6098 C   0  0  0  0  0  0  0  0  0  0  0  0
   -3.5937    4.5392   11.3237 C   0  0  0  0  0  0  0  0  0  0  0  0
   -6.4073    6.4619   13.0731 C   0  0  0  0  0  0  0  0  0  0  0  0
   -6.4522    7.4728   13.8172 O   0  0  0  0  0  0  0  0  0  0  0  0
   -7.4276    5.9586   12.5566 O   0  0  0  0  0  0  0  0  0  0  0  0
   -0.5346   -0.5187   14.2204 C   0  0  0  0  0  0  0  0  0  0  0  0
   -1.8923   -0.7433   13.9057 C   0  0  0  0  0  0  0  0  0  0  0  0
   -2.7122    0.1935   13.3109 O   0  0  0  0  0  0  0  0  0  0  0  0
   -2.1140    1.3612   12.7749 C   0  0  0  0  0  0  0  0  0  0  0  0
   -5.5314   -3.2900   13.9333 H   0  0  0  0  0  0  0  0  0  0  0  0
   -4.0253   -4.1802   13.6971 H   0  0  0  0  0  0  0  0  0  0  0  0
   -4.4604   -3.5385   15.3091 H   0  0  0  0  0  0  0  0  0  0  0  0
   -2.1286   -3.9515   15.1168 H   0  0  0  0  0  0  0  0  0  0  0  0
    0.2156   -3.5204   15.6445 H   0  0  0  0  0  0  0  0  0  0  0  0
    1.9231   -1.9245   15.9858 H   0  0  0  0  0  0  0  0  0  0  0  0
    5.1924    1.9735   13.3196 H   0  0  0  0  0  0  0  0  0  0  0  0
    6.7686    0.9914   15.2530 H   0  0  0  0  0  0  0  0  0  0  0  0
    6.1665   -0.7239   17.3924 H   0  0  0  0  0  0  0  0  0  0  0  0
    4.5741    2.4130   11.1802 H   0  0  0  0  0  0  0  0  0  0  0  0
    3.7516    3.8233    9.3406 H   0  0  0  0  0  0  0  0  0  0  0  0
    1.3522    4.4279    9.2045 H   0  0  0  0  0  0  0  0  0  0  0  0
    0.6060    2.2625   12.8628 H   0  0  0  0  0  0  0  0  0  0  0  0
   -0.5557    4.4217   12.7792 H   0  0  0  0  0  0  0  0  0  0  0  0
   -1.9151    5.6476   14.0874 H   0  0  0  0  0  0  0  0  0  0  0  0
   -4.1414    6.5480   14.6134 H   0  0  0  0  0  0  0  0  0  0  0  0
   -5.6773    4.9212   10.9181 H   0  0  0  0  0  0  0  0  0  0  0  0
   -3.4699    3.9722   10.4115 H   0  0  0  0  0  0  0  0  0  0  0  0
   -0.0816    0.4359   14.0074 H   0  0  0  0  0  0  0  0  0  0  0  0
   -2.8731    2.0092   12.3282 H   0  0  0  0  0  0  0  0  0  0  0  0
   -1.6185    1.9174   13.5698 H   0  0  0  0  0  0  0  0  0  0  0  0
   -1.3946    1.1070   11.9944 H   0  0  0  0  0  0  0  0  0  0  0  0
  1  2  1  0
  1 39  1  0
  1 40  1  0
  1 41  1  0
  2  3  1  0
  3  4  2  0
  3 36  1  0
  4  5  1  0
  4 42  1  0
  5  6  2  0
  5 43  1  0
  6  7  1  0
  6 35  1  0
  7  8  1  0
  7 44  1  0
  8  9  2  0
  8 16  1  0
  9 10  1  0
 10 11  2  0
 10 17  1  0
 11 12  1  0
 11 45  1  0
 12 13  1  0
 12 16  1  0
 13 14  2  0
 13 46  1  0
 14 15  1  0
 14 47  1  0
 15 16  2  0
 17 18  2  0
 17 22  1  0
 18 19  1  0
 18 48  1  0
 19 20  2  0
 19 49  1  0
 20 21  1  0
 20 50  1  0
 21 22  2  0
 21 23  1  0
 22 51  1  0
 23 24  2  0
 23 25  1  0
 25 26  1  0
 25 52  1  0
 26 27  2  0
 26 31  1  0
 27 28  1  0
 27 53  1  0
 28 29  2  0
 28 54  1  0
 29 30  1  0
 29 32  1  0
 30 31  2  0
 30 55  1  0
 31 56  1  0
 32 33  2  0
 32 34  1  0
 35 36  2  0
 35 57  1  0
 36 37  1  0
 37 38  1  0
 38 58  1  0
 38 59  1  0
 38 60  1  0
M  CHG  1  34  -1
M  END
>  <s_m_entry_id>  (1) 
1014

>  <IC50[nM]>  (1) 
0.84

>  <s_m_Source_Path>  (1) 
/projects/mai/users/kmzp800_harry/pmx_colab/docking_jobs/syk

>  <s_m_Source_File>  (1) 
tnks2_lig.sdf

>  <i_m_Source_File_Index>  (1) 
27

>  <s_m_job_name>  (1) 
glide-dock_SP_tnks2_core_const

>  <r_i_docking_score>  (1) 
-8.27475453916887

>  <r_i_glide_gscore>  (1) 
-8.27475453916887

>  <r_i_glide_emodel>  (1) 
-72.9264146053613

>  <index_string>  (1) 
26:0:0

$$$$
