29:0:0
     RDKit          3D

 46 49  0  0  1  0  0  0  0  0999 V2000
   34.3640   36.2590   20.2130 C   0  0  0  0  0  0  0  0  0  0  0  0
   34.1160   37.6050   20.4780 C   0  0  0  0  0  0  0  0  0  0  0  0
   34.1820   38.0760   21.7830 C   0  0  0  0  0  0  0  0  0  0  0  0
   33.9510   39.4170   22.0780 C   0  0  0  0  0  0  0  0  0  0  0  0
   34.0280   39.8470   23.3640 N   0  0  0  0  0  0  0  0  0  0  0  0
   34.3310   38.9890   24.3740 C   0  0  0  0  0  0  0  0  0  0  0  0
   34.4020   39.4780   25.7150 N   0  0  0  0  0  0  0  0  0  0  0  0
   34.5570   37.6740   24.1040 N   0  0  0  0  0  0  0  0  0  0  0  0
   34.4910   37.1930   22.8320 C   0  0  0  0  0  0  0  0  0  0  0  0
   34.7130   35.8690   22.5670 N   0  0  0  0  0  0  0  0  0  0  0  0
   35.0170   34.9540   23.6640 C   0  0  0  0  0  0  0  0  0  0  0  0
   34.6420   35.3860   21.2850 C   0  0  0  0  0  0  0  0  0  0  0  0
   34.7970   34.1530   21.0640 O   0  0  0  0  0  0  0  0  0  0  0  0
   34.7470   38.6310   26.8490 C   0  0  0  0  0  0  0  0  0  0  0  0
   33.4700   38.0060   27.4270 C   0  0  0  0  0  0  0  0  0  0  0  0
   32.7890   38.9130   28.4650 C   0  0  0  0  0  0  0  0  0  0  0  0
   33.2730   40.2300   28.3880 O   0  0  0  0  0  0  0  0  0  0  0  0
   34.5900   40.1830   28.8750 C   0  0  0  0  0  0  0  0  0  0  0  0
   35.5200   39.4430   27.9000 C   0  0  0  0  0  0  0  0  0  0  0  0
   34.2850   35.8150   18.8840 O   0  0  0  0  0  0  0  0  0  0  0  0
   36.2650   35.5090   15.7450 C   0  0  0  0  0  0  0  0  0  0  0  0
   37.5570   35.6970   16.2440 C   0  0  0  0  0  0  0  0  0  0  0  0
   37.7520   35.9240   17.6100 C   0  0  0  0  0  0  0  0  0  0  0  0
   39.0040   36.1010   18.0940 F   0  0  0  0  0  0  0  0  0  0  0  0
   36.6560   35.9650   18.4760 C   0  0  0  0  0  0  0  0  0  0  0  0
   35.3590   35.7880   17.9840 C   0  0  0  0  0  0  0  0  0  0  0  0
   35.1690   35.5510   16.6120 C   0  0  0  0  0  0  0  0  0  0  0  0
   33.8686   38.2924   19.6556 H   0  0  0  0  0  0  0  0  0  0  0  0
   33.7071   40.1254   21.2726 H   0  0  0  0  0  0  0  0  0  0  0  0
   34.2003   40.4733   25.8873 H   0  0  0  0  0  0  0  0  0  0  0  0
   34.8477   35.4635   24.6241 H   0  0  0  0  0  0  0  0  0  0  0  0
   34.3638   34.0715   23.5971 H   0  0  0  0  0  0  0  0  0  0  0  0
   36.0685   34.6378   23.5971 H   0  0  0  0  0  0  0  0  0  0  0  0
   35.4055   37.8134   26.5206 H   0  0  0  0  0  0  0  0  0  0  0  0
   32.7644   37.8200   26.6039 H   0  0  0  0  0  0  0  0  0  0  0  0
   33.7545   37.0723   27.9341 H   0  0  0  0  0  0  0  0  0  0  0  0
   31.7047   38.9183   28.2797 H   0  0  0  0  0  0  0  0  0  0  0  0
   33.0105   38.5198   29.4682 H   0  0  0  0  0  0  0  0  0  0  0  0
   34.9584   41.2104   29.0116 H   0  0  0  0  0  0  0  0  0  0  0  0
   34.5872   39.6402   29.8317 H   0  0  0  0  0  0  0  0  0  0  0  0
   36.1596   38.7571   28.4749 H   0  0  0  0  0  0  0  0  0  0  0  0
   36.1141   40.1995   27.3664 H   0  0  0  0  0  0  0  0  0  0  0  0
   36.1106   35.3281   14.6710 H   0  0  0  0  0  0  0  0  0  0  0  0
   38.4200   35.6664   15.5626 H   0  0  0  0  0  0  0  0  0  0  0  0
   36.8144   36.1375   19.5508 H   0  0  0  0  0  0  0  0  0  0  0  0
   34.1533   35.3978   16.2184 H   0  0  0  0  0  0  0  0  0  0  0  0
  1  2  2  0
  1 12  1  0
  1 20  1  0
  2  3  1  0
  2 28  1  0
  3  4  2  0
  3  9  1  0
  4  5  1  0
  4 29  1  0
  5  6  2  0
  6  7  1  0
  6  8  1  0
  7 14  1  0
  7 30  1  0
  8  9  2  0
  9 10  1  0
 10 11  1  0
 10 12  1  0
 11 31  1  0
 11 32  1  0
 11 33  1  0
 12 13  2  0
 14 15  1  0
 14 19  1  0
 14 34  1  0
 15 16  1  0
 15 35  1  0
 15 36  1  0
 16 17  1  0
 16 37  1  0
 16 38  1  0
 17 18  1  0
 18 19  1  0
 18 39  1  0
 18 40  1  0
 19 41  1  0
 19 42  1  0
 20 26  1  0
 21 22  2  0
 21 27  1  0
 21 43  1  0
 22 23  1  0
 22 44  1  0
 23 24  1  0
 23 25  2  0
 25 26  1  0
 25 45  1  0
 26 27  2  0
 27 46  1  0
M  END
>  <s_m_entry_id>  (1) 
1384

>  <MODEL>  (1) 
1

>  <REMARK>  (1) 
 VINA RESULT:    -8.626      0.000      0.000
 INTER + INTRA:         -10.720
 INTER:                 -10.139
 INTRA:                  -0.582
 UNBOUND:                -0.582
  Name = /scratch/kmzp800/tmplu6gks_7/tmpv7yg1z7b.pdb
  4 active torsions:
  status: ('A' for Active; 'I' for Inactive)
    1  A    between atoms: C5_6  and  O1_7
    2  A    between atoms: O1_7  and  C6_8
    3  A    between atoms: N2_14  and  C11_15
    4  A    between atoms: N4_23  and  C17_24
                            x       y       z     vdW  Elec       q    Type
                         _______ _______ _______ _____ _____    ______ ____

>  <TORSDO>  (1) 
F 3

>  <grid_id>  (1) 
p38-prepared

>  <grid_path>  (1) 
/projects/mai/users/kmzp800_harry/pmx_colab/docking_jobs/p38/vina_docking/input_files/p38_vina.pdbqt

>  <grid_filename>  (1) 
p38_vina.pdbqt

>  <docking_score>  (1) 
-8.626

>  <compound_name>  (1) 
lig_p38a_2f

>  <index_string>  (1) 
29:0:0

>  <s_m_Source_Path>  (1) 
/projects/mai/users/kmzp800_harry/pmx_colab/docking_jobs/p38

>  <s_m_Source_File>  (1) 
p38_confs_vina_naive.sdf

>  <i_m_Source_File_Index>  (1) 
31

$$$$
