30:0:0
     RDKit          3D

 45 48  0  0  1  0  0  0  0  0999 V2000
   33.6869   35.1491   17.6579 Cl  0  0  0  0  0  0  0  0  0  0  0  0
   35.3672   35.5209   17.5884 C   0  0  0  0  0  0  0  0  0  0  0  0
   36.0486   35.3481   16.3638 C   0  0  0  0  0  0  0  0  0  0  0  0
   37.4400   35.5556   16.2891 C   0  0  0  0  0  0  0  0  0  0  0  0
   38.1533   35.9493   17.4380 C   0  0  0  0  0  0  0  0  0  0  0  0
   37.4682   36.1716   18.6529 C   0  0  0  0  0  0  0  0  0  0  0  0
   36.0718   35.9599   18.7337 C   0  0  0  0  0  0  0  0  0  0  0  0
   35.3714   36.3105   19.9853 C   0  0  0  0  0  0  0  0  0  0  0  0
   35.3326   37.6193   20.2894 C   0  0  0  0  0  0  0  0  0  0  0  0
   34.8078   35.3192   20.9181 C   0  0  0  0  0  0  0  0  0  0  0  0
   34.8243   34.1145   20.6508 O   0  0  0  0  0  0  0  0  0  0  0  0
   34.2761   35.7972   22.0912 N   0  0  0  0  0  0  0  0  0  0  0  0
   33.7163   34.8453   23.0637 C   0  0  0  0  0  0  0  0  0  0  0  0
   34.2062   37.1968   22.4291 C   0  0  0  0  0  0  0  0  0  0  0  0
   34.7415   38.1179   21.5128 C   0  0  0  0  0  0  0  0  0  0  0  0
   33.6587   37.6636   23.5796 N   0  0  0  0  0  0  0  0  0  0  0  0
   33.6594   38.9848   23.7980 C   0  0  0  0  0  0  0  0  0  0  0  0
   34.1524   39.9186   22.9896 N   0  0  0  0  0  0  0  0  0  0  0  0
   34.6806   39.4848   21.8331 C   0  0  0  0  0  0  0  0  0  0  0  0
   33.1029   39.4757   24.9609 N   0  0  0  0  0  0  0  0  0  0  0  0
   32.6052   38.6699   26.0688 C   0  0  0  0  0  0  0  0  0  0  0  0
   32.4560   39.5313   27.3306 C   0  0  0  0  0  0  0  0  0  0  0  0
   31.8827   38.7027   28.4906 C   0  0  0  0  0  0  0  0  0  0  0  0
   30.6332   38.1378   28.1067 O   0  0  0  0  0  0  0  0  0  0  0  0
   30.7399   37.2486   27.0000 C   0  0  0  0  0  0  0  0  0  0  0  0
   31.2450   38.0139   25.7655 C   0  0  0  0  0  0  0  0  0  0  0  0
   35.5040   35.0355   15.4852 H   0  0  0  0  0  0  0  0  0  0  0  0
   37.9601   35.4100   15.3531 H   0  0  0  0  0  0  0  0  0  0  0  0
   39.2196   36.1181   17.3824 H   0  0  0  0  0  0  0  0  0  0  0  0
   38.0191   36.5225   19.5143 H   0  0  0  0  0  0  0  0  0  0  0  0
   35.7573   38.3497   19.6163 H   0  0  0  0  0  0  0  0  0  0  0  0
   33.9769   35.1272   24.0846 H   0  0  0  0  0  0  0  0  0  0  0  0
   32.6284   34.8344   22.9871 H   0  0  0  0  0  0  0  0  0  0  0  0
   34.0684   33.8210   22.9401 H   0  0  0  0  0  0  0  0  0  0  0  0
   35.0646   40.2336   21.1640 H   0  0  0  0  0  0  0  0  0  0  0  0
   33.2316   40.4655   25.1303 H   0  0  0  0  0  0  0  0  0  0  0  0
   33.3373   37.8862   26.2687 H   0  0  0  0  0  0  0  0  0  0  0  0
   33.4154   39.9646   27.6180 H   0  0  0  0  0  0  0  0  0  0  0  0
   31.7849   40.3658   27.1263 H   0  0  0  0  0  0  0  0  0  0  0  0
   32.5761   37.9134   28.7871 H   0  0  0  0  0  0  0  0  0  0  0  0
   31.7316   39.3368   29.3641 H   0  0  0  0  0  0  0  0  0  0  0  0
   31.4130   36.4257   27.2473 H   0  0  0  0  0  0  0  0  0  0  0  0
   29.7643   36.8042   26.8018 H   0  0  0  0  0  0  0  0  0  0  0  0
   30.5110   38.7732   25.4883 H   0  0  0  0  0  0  0  0  0  0  0  0
   31.3208   37.3306   24.9180 H   0  0  0  0  0  0  0  0  0  0  0  0
  1  2  1  0
  2  7  2  0
  2  3  1  0
  3  4  2  0
  3 27  1  0
  4  5  1  0
  4 28  1  0
  5  6  2  0
  5 29  1  0
  6  7  1  0
  6 30  1  0
  7  8  1  0
  8  9  2  0
  8 10  1  0
  9 15  1  0
  9 31  1  0
 10 11  2  0
 10 12  1  0
 12 13  1  0
 12 14  1  0
 13 32  1  0
 13 33  1  0
 13 34  1  0
 14 15  2  0
 14 16  1  0
 15 19  1  0
 16 17  2  0
 17 18  1  0
 17 20  1  0
 18 19  2  0
 19 35  1  0
 20 21  1  0
 20 36  1  0
 21 26  1  0
 21 22  1  0
 21 37  1  0
 22 23  1  0
 22 38  1  0
 22 39  1  0
 23 24  1  0
 23 40  1  0
 23 41  1  0
 24 25  1  0
 25 26  1  0
 25 42  1  0
 25 43  1  0
 26 44  1  0
 26 45  1  0
M  END
>  <s_m_entry_id>  (1) 
253

>  <i_f3d_flags>  (1) 
0

>  <r_lp_tautomer_probability>  (1) 
1

>  <r_epik_Ionization_Penalty>  (1) 
  0.0000

>  <r_epik_State_Penalty>  (1) 
  0.0000

>  <i_epik_Tot_Q>  (1) 
0

>  <s_m_job_name>  (1) 
glide-dock_SP_p38_core_cons_top_1

>  <r_i_docking_score>  (1) 
-7.70716521282508

>  <r_i_glide_gscore>  (1) 
-7.70716521282508

>  <r_i_glide_emodel>  (1) 
-64.6013260677414

>  <index_string>  (1) 
30:0:0

$$$$
