21:0:0
     RDKit          3D

 46 50  0  0  1  0  0  0  0  0999 V2000
   -4.5014   -3.3895   14.5868 C   0  0  0  0  0  0  0  0  0  0  0  0
   -3.8662   -2.2152   14.0937 O   0  0  0  0  0  0  0  0  0  0  0  0
   -2.5232   -2.0360   14.3624 C   0  0  0  0  0  0  0  0  0  0  0  0
   -1.7268   -2.9827   15.0525 C   0  0  0  0  0  0  0  0  0  0  0  0
   -0.3703   -2.7268   15.3171 C   0  0  0  0  0  0  0  0  0  0  0  0
    0.2198   -1.5186   14.9048 C   0  0  0  0  0  0  0  0  0  0  0  0
    1.5687   -1.3154   15.2447 N   0  0  0  0  0  0  0  0  0  0  0  0
    2.5255   -0.4233   14.7305 C   0  0  0  0  0  0  0  0  0  0  0  0
    2.2052    0.3853   13.7540 N   0  0  0  0  0  0  0  0  0  0  0  0
    3.1299    1.2640   13.2375 C   0  0  0  0  0  0  0  0  0  0  0  0
    4.4371    1.2877   13.6794 C   0  0  0  0  0  0  0  0  0  0  0  0
    4.7690    0.4786   14.7194 N   0  0  0  0  0  0  0  0  0  0  0  0
    5.9165    0.3761   15.4857 C   0  0  0  0  0  0  0  0  0  0  0  0
    5.6089   -0.5024   16.4898 C   0  0  0  0  0  0  0  0  0  0  0  0
    4.3612   -1.0564   16.3234 N   0  0  0  0  0  0  0  0  0  0  0  0
    3.8293   -0.4127   15.2877 C   0  0  0  0  0  0  0  0  0  0  0  0
    2.6621    2.2360   12.2125 C   0  0  0  0  0  0  0  0  0  0  0  0
    3.5444    2.7158   11.2041 C   0  0  0  0  0  0  0  0  0  0  0  0
    3.1173    3.6059   10.1941 C   0  0  0  0  0  0  0  0  0  0  0  0
    1.7838    4.0654   10.1768 C   0  0  0  0  0  0  0  0  0  0  0  0
    1.1064    4.9168    9.3181 N   0  0  0  0  0  0  0  0  0  0  0  0
   -0.1195    5.0242    9.7397 N   0  0  0  0  0  0  0  0  0  0  0  0
   -0.2533    4.2537   10.8518 N   0  0  0  0  0  0  0  0  0  0  0  0
    0.9161    3.6049   11.1914 C   0  0  0  0  0  0  0  0  0  0  0  0
    1.3288    2.7145   12.2003 C   0  0  0  0  0  0  0  0  0  0  0  0
   -0.5764   -0.5730   14.2185 C   0  0  0  0  0  0  0  0  0  0  0  0
   -1.9411   -0.8223   13.9376 C   0  0  0  0  0  0  0  0  0  0  0  0
   -2.7684    0.0716   13.2855 O   0  0  0  0  0  0  0  0  0  0  0  0
   -2.1628    1.1842   12.6352 C   0  0  0  0  0  0  0  0  0  0  0  0
   -5.5638   -3.3599   14.3371 H   0  0  0  0  0  0  0  0  0  0  0  0
   -4.4257   -3.4597   15.6771 H   0  0  0  0  0  0  0  0  0  0  0  0
   -4.0740   -4.2880   14.1300 H   0  0  0  0  0  0  0  0  0  0  0  0
   -2.1354   -3.9216   15.3911 H   0  0  0  0  0  0  0  0  0  0  0  0
    0.2118   -3.4610   15.8567 H   0  0  0  0  0  0  0  0  0  0  0  0
    1.9578   -1.9895   15.8962 H   0  0  0  0  0  0  0  0  0  0  0  0
    5.2018    1.9681   13.3212 H   0  0  0  0  0  0  0  0  0  0  0  0
    6.7832    0.9816   15.2769 H   0  0  0  0  0  0  0  0  0  0  0  0
    6.1084   -0.7821   17.3843 H   0  0  0  0  0  0  0  0  0  0  0  0
    4.5708    2.3816   11.1853 H   0  0  0  0  0  0  0  0  0  0  0  0
    3.8170    3.9445    9.4442 H   0  0  0  0  0  0  0  0  0  0  0  0
   -1.1384    4.2014   11.3345 H   0  0  0  0  0  0  0  0  0  0  0  0
    0.6252    2.4015   12.9530 H   0  0  0  0  0  0  0  0  0  0  0  0
   -0.1546    0.3750   13.9441 H   0  0  0  0  0  0  0  0  0  0  0  0
   -2.9288    1.7412   12.0895 H   0  0  0  0  0  0  0  0  0  0  0  0
   -1.7139    1.8685   13.3614 H   0  0  0  0  0  0  0  0  0  0  0  0
   -1.4105    0.8682   11.9042 H   0  0  0  0  0  0  0  0  0  0  0  0
  1  2  1  0
  1 30  1  0
  1 31  1  0
  1 32  1  0
  2  3  1  0
  3  4  2  0
  3 27  1  0
  4  5  1  0
  4 33  1  0
  5  6  2  0
  5 34  1  0
  6  7  1  0
  6 26  1  0
  7  8  1  0
  7 35  1  0
  8  9  2  0
  8 16  1  0
  9 10  1  0
 10 11  2  0
 10 17  1  0
 11 12  1  0
 11 36  1  0
 12 13  1  0
 12 16  1  0
 13 14  2  0
 13 37  1  0
 14 15  1  0
 14 38  1  0
 15 16  2  0
 17 18  2  0
 17 25  1  0
 18 19  1  0
 18 39  1  0
 19 20  2  0
 19 40  1  0
 20 21  1  0
 20 24  1  0
 21 22  2  0
 22 23  1  0
 23 24  1  0
 23 41  1  0
 24 25  2  0
 25 42  1  0
 26 27  2  0
 26 43  1  0
 27 28  1  0
 28 29  1  0
 29 44  1  0
 29 45  1  0
 29 46  1  0
M  END
>  <s_m_entry_id>  (1) 
1009

>  <IC50[nM]>  (1) 
12.6

>  <s_m_Source_Path>  (1) 
/projects/mai/users/kmzp800_harry/pmx_colab/docking_jobs/syk

>  <s_m_Source_File>  (1) 
tnks2_lig.sdf

>  <i_m_Source_File_Index>  (1) 
22

>  <s_m_job_name>  (1) 
glide-dock_SP_tnks2_core_const

>  <r_i_docking_score>  (1) 
-7.13128600299106

>  <r_i_glide_gscore>  (1) 
-7.13128600299106

>  <r_i_glide_emodel>  (1) 
-49.1612712159878

>  <index_string>  (1) 
21:0:0

$$$$
