2:0:0
     RDKit          3D

 46 49  0  0  1  0  0  0  0  0999 V2000
   33.5460   35.9730   20.0900 C   0  0  0  0  0  0  0  0  0  0  0  0
   33.4820   37.3590   20.2230 C   0  0  0  0  0  0  0  0  0  0  0  0
   33.2660   37.9260   21.4730 C   0  0  0  0  0  0  0  0  0  0  0  0
   33.1860   39.3060   21.6350 C   0  0  0  0  0  0  0  0  0  0  0  0
   32.9700   39.8290   22.8700 N   0  0  0  0  0  0  0  0  0  0  0  0
   32.8280   39.0250   23.9580 C   0  0  0  0  0  0  0  0  0  0  0  0
   32.6010   39.6130   25.2440 N   0  0  0  0  0  0  0  0  0  0  0  0
   32.9050   37.6740   23.8170 N   0  0  0  0  0  0  0  0  0  0  0  0
   33.1200   37.1000   22.6010 C   0  0  0  0  0  0  0  0  0  0  0  0
   33.2050   35.7400   22.4680 N   0  0  0  0  0  0  0  0  0  0  0  0
   33.0690   34.8910   23.6490 C   0  0  0  0  0  0  0  0  0  0  0  0
   33.4270   35.1660   21.2440 C   0  0  0  0  0  0  0  0  0  0  0  0
   33.5480   33.9130   21.1450 O   0  0  0  0  0  0  0  0  0  0  0  0
   32.4350   38.8530   26.4780 C   0  0  0  0  0  0  0  0  0  0  0  0
   31.0490   38.1970   26.5420 C   0  0  0  0  0  0  0  0  0  0  0  0
   30.6740   37.7910   27.9750 C   0  0  0  0  0  0  0  0  0  0  0  0
   31.8050   37.7700   28.8100 O   0  0  0  0  0  0  0  0  0  0  0  0
   32.1700   39.1150   28.9930 C   0  0  0  0  0  0  0  0  0  0  0  0
   32.7600   39.7120   27.7070 C   0  0  0  0  0  0  0  0  0  0  0  0
   33.7700   35.4370   18.8140 O   0  0  0  0  0  0  0  0  0  0  0  0
   37.3530   35.9730   18.0950 C   0  0  0  0  0  0  0  0  0  0  0  0
   36.1420   35.8380   18.7790 C   0  0  0  0  0  0  0  0  0  0  0  0
   34.9610   35.5510   18.0840 C   0  0  0  0  0  0  0  0  0  0  0  0
   35.0010   35.4300   16.6790 C   0  0  0  0  0  0  0  0  0  0  0  0
   33.8700   35.2220   15.9610 F   0  0  0  0  0  0  0  0  0  0  0  0
   36.2150   35.5660   16.0000 C   0  0  0  0  0  0  0  0  0  0  0  0
   37.3910   35.8290   16.7070 C   0  0  0  0  0  0  0  0  0  0  0  0
   38.5650   35.9590   16.0450 F   0  0  0  0  0  0  0  0  0  0  0  0
   33.6023   38.0031   19.3395 H   0  0  0  0  0  0  0  0  0  0  0  0
   33.2973   39.9710   20.7659 H   0  0  0  0  0  0  0  0  0  0  0  0
   32.5517   40.6402   25.3013 H   0  0  0  0  0  0  0  0  0  0  0  0
   33.1675   35.5058   24.5558 H   0  0  0  0  0  0  0  0  0  0  0  0
   32.0817   34.4060   23.6402 H   0  0  0  0  0  0  0  0  0  0  0  0
   33.8554   34.1219   23.6402 H   0  0  0  0  0  0  0  0  0  0  0  0
   33.1634   38.0287   26.4820 H   0  0  0  0  0  0  0  0  0  0  0  0
   30.3002   38.9101   26.1668 H   0  0  0  0  0  0  0  0  0  0  0  0
   31.0734   37.2868   25.9248 H   0  0  0  0  0  0  0  0  0  0  0  0
   29.9468   38.5135   28.3740 H   0  0  0  0  0  0  0  0  0  0  0  0
   30.2417   36.7799   27.9487 H   0  0  0  0  0  0  0  0  0  0  0  0
   31.2789   39.6924   29.2803 H   0  0  0  0  0  0  0  0  0  0  0  0
   32.9353   39.1633   29.7816 H   0  0  0  0  0  0  0  0  0  0  0  0
   33.8526   39.7801   27.8148 H   0  0  0  0  0  0  0  0  0  0  0  0
   32.3145   40.7064   27.5563 H   0  0  0  0  0  0  0  0  0  0  0  0
   38.2767   36.1928   18.6505 H   0  0  0  0  0  0  0  0  0  0  0  0
   36.1164   35.9582   19.8721 H   0  0  0  0  0  0  0  0  0  0  0  0
   36.2447   35.4656   14.9050 H   0  0  0  0  0  0  0  0  0  0  0  0
  1  2  2  0
  1 12  1  0
  1 20  1  0
  2  3  1  0
  2 29  1  0
  3  4  2  0
  3  9  1  0
  4  5  1  0
  4 30  1  0
  5  6  2  0
  6  7  1  0
  6  8  1  0
  7 14  1  0
  7 31  1  0
  8  9  2  0
  9 10  1  0
 10 11  1  0
 10 12  1  0
 11 32  1  0
 11 33  1  0
 11 34  1  0
 12 13  2  0
 14 15  1  0
 14 19  1  0
 14 35  1  0
 15 16  1  0
 15 36  1  0
 15 37  1  0
 16 17  1  0
 16 38  1  0
 16 39  1  0
 17 18  1  0
 18 19  1  0
 18 40  1  0
 18 41  1  0
 19 42  1  0
 19 43  1  0
 20 23  1  0
 21 22  2  0
 21 27  1  0
 21 44  1  0
 22 23  1  0
 22 45  1  0
 23 24  2  0
 24 25  1  0
 24 26  1  0
 26 27  2  0
 26 46  1  0
 27 28  1  0
M  END
>  <s_m_entry_id>  (1) 
1356

>  <MODEL>  (1) 
1

>  <REMARK>  (1) 
 VINA RESULT:    -8.873      0.000      0.000
 INTER + INTRA:         -10.884
 INTER:                 -10.429
 INTRA:                  -0.454
 UNBOUND:                -0.454
  Name = /scratch/kmzp800/tmpsekqvmh1/tmp3vgt7uig.pdb
  4 active torsions:
  status: ('A' for Active; 'I' for Inactive)
    1  A    between atoms: C3_3  and  O1_4
    2  A    between atoms: O1_4  and  C4_5
    3  A    between atoms: N2_11  and  C9_12
    4  A    between atoms: N4_20  and  C15_21
                            x       y       z     vdW  Elec       q    Type
                         _______ _______ _______ _____ _____    ______ ____

>  <TORSDO>  (1) 
F 3

>  <grid_id>  (1) 
p38-prepared

>  <grid_path>  (1) 
/projects/mai/users/kmzp800_harry/pmx_colab/docking_jobs/p38/vina_docking/input_files/p38_vina.pdbqt

>  <grid_filename>  (1) 
p38_vina.pdbqt

>  <docking_score>  (1) 
-8.873

>  <compound_name>  (1) 
lig_p38a_3fln

>  <index_string>  (1) 
2:0:0

>  <s_m_Source_Path>  (1) 
/projects/mai/users/kmzp800_harry/pmx_colab/docking_jobs/p38

>  <s_m_Source_File>  (1) 
p38_confs_vina_naive.sdf

>  <i_m_Source_File_Index>  (1) 
3

$$$$
