29:0:0
     RDKit          3D

 55 60  0  0  1  0  0  0  0  0999 V2000
   -5.3797   -3.3575   15.6403 C   0  0  0  0  0  0  0  0  0  0  0  0
   -6.6625   -2.8988   14.9260 C   0  0  0  0  0  0  0  0  0  0  0  0
   -6.4184   -1.9934   13.8509 O   0  0  0  0  0  0  0  0  0  0  0  0
   -5.8246   -2.5932   12.7063 C   0  0  0  0  0  0  0  0  0  0  0  0
   -4.2999   -2.4403   12.7256 C   0  0  0  0  0  0  0  0  0  0  0  0
   -3.6542   -3.0072   13.9154 N   0  0  0  0  0  0  0  0  0  0  0  0
   -4.3521   -4.0245   14.7122 C   0  0  0  0  0  0  0  0  0  0  0  0
   -2.3824   -2.5363   14.3243 C   0  0  0  0  0  0  0  0  0  0  0  0
   -1.5127   -3.3375   15.1139 C   0  0  0  0  0  0  0  0  0  0  0  0
   -0.2142   -2.8955   15.4297 C   0  0  0  0  0  0  0  0  0  0  0  0
    0.2731   -1.6564   14.9691 C   0  0  0  0  0  0  0  0  0  0  0  0
    1.5958   -1.3149   15.3035 N   0  0  0  0  0  0  0  0  0  0  0  0
    2.5227   -0.4274   14.7305 C   0  0  0  0  0  0  0  0  0  0  0  0
    2.1798    0.3806   13.7583 N   0  0  0  0  0  0  0  0  0  0  0  0
    3.1149    1.2691   13.2546 C   0  0  0  0  0  0  0  0  0  0  0  0
    4.4266    1.2974   13.6860 C   0  0  0  0  0  0  0  0  0  0  0  0
    4.7562    0.4832   14.7233 N   0  0  0  0  0  0  0  0  0  0  0  0
    5.9108    0.3689   15.4715 C   0  0  0  0  0  0  0  0  0  0  0  0
    5.6039   -0.5014   16.4866 C   0  0  0  0  0  0  0  0  0  0  0  0
    4.3499   -1.0527   16.3291 N   0  0  0  0  0  0  0  0  0  0  0  0
    3.8268   -0.4149   15.2875 C   0  0  0  0  0  0  0  0  0  0  0  0
    2.6330    2.2419   12.2369 C   0  0  0  0  0  0  0  0  0  0  0  0
    3.5034    2.7696   11.2441 C   0  0  0  0  0  0  0  0  0  0  0  0
    3.0547    3.6796   10.2651 C   0  0  0  0  0  0  0  0  0  0  0  0
    1.7059    4.0917   10.2305 C   0  0  0  0  0  0  0  0  0  0  0  0
    0.8729    4.9239    9.4011 C   0  0  0  0  0  0  0  0  0  0  0  0
   -0.3551    4.9921    9.8616 N   0  0  0  0  0  0  0  0  0  0  0  0
   -0.3649    4.2056   10.9725 N   0  0  0  0  0  0  0  0  0  0  0  0
    0.8491    3.6031   11.2529 C   0  0  0  0  0  0  0  0  0  0  0  0
    1.2936    2.7046   12.2423 C   0  0  0  0  0  0  0  0  0  0  0  0
   -0.6011   -0.8332   14.2320 C   0  0  0  0  0  0  0  0  0  0  0  0
   -1.9093   -1.2552   13.9299 C   0  0  0  0  0  0  0  0  0  0  0  0
   -5.6521   -4.0805   16.4144 H   0  0  0  0  0  0  0  0  0  0  0  0
   -4.9222   -2.5153   16.1632 H   0  0  0  0  0  0  0  0  0  0  0  0
   -7.2164   -3.7675   14.5669 H   0  0  0  0  0  0  0  0  0  0  0  0
   -7.3093   -2.4175   15.6613 H   0  0  0  0  0  0  0  0  0  0  0  0
   -6.2193   -2.0673   11.8356 H   0  0  0  0  0  0  0  0  0  0  0  0
   -6.1052   -3.6394   12.5978 H   0  0  0  0  0  0  0  0  0  0  0  0
   -4.1175   -1.3741   12.6601 H   0  0  0  0  0  0  0  0  0  0  0  0
   -3.8750   -2.9081   11.8350 H   0  0  0  0  0  0  0  0  0  0  0  0
   -4.8379   -4.7581   14.0622 H   0  0  0  0  0  0  0  0  0  0  0  0
   -3.6979   -4.6276   15.3377 H   0  0  0  0  0  0  0  0  0  0  0  0
   -1.7695   -4.3227   15.4818 H   0  0  0  0  0  0  0  0  0  0  0  0
    0.4298   -3.5357   16.0140 H   0  0  0  0  0  0  0  0  0  0  0  0
    2.0207   -1.9039   16.0080 H   0  0  0  0  0  0  0  0  0  0  0  0
    5.1838    1.9954   13.3218 H   0  0  0  0  0  0  0  0  0  0  0  0
    6.7807    0.9826   15.2573 H   0  0  0  0  0  0  0  0  0  0  0  0
    6.1494   -0.7472   17.3730 H   0  0  0  0  0  0  0  0  0  0  0  0
    4.5352    2.4535   11.2142 H   0  0  0  0  0  0  0  0  0  0  0  0
    3.7377    4.0591    9.5191 H   0  0  0  0  0  0  0  0  0  0  0  0
    1.1323    5.4676    8.4982 H   0  0  0  0  0  0  0  0  0  0  0  0
   -1.2112    4.1052   11.5119 H   0  0  0  0  0  0  0  0  0  0  0  0
    0.5892    2.3627   12.9863 H   0  0  0  0  0  0  0  0  0  0  0  0
   -0.2876    0.1389   13.8918 H   0  0  0  0  0  0  0  0  0  0  0  0
   -2.5138   -0.5612   13.3671 H   0  0  0  0  0  0  0  0  0  0  0  0
  1  2  1  0
  1  7  1  0
  1 33  1  0
  1 34  1  0
  2  3  1  0
  2 35  1  0
  2 36  1  0
  3  4  1  0
  4  5  1  0
  4 37  1  0
  4 38  1  0
  5  6  1  0
  5 39  1  0
  5 40  1  0
  6  7  1  0
  6  8  1  0
  7 41  1  0
  7 42  1  0
  8  9  2  0
  8 32  1  0
  9 10  1  0
  9 43  1  0
 10 11  2  0
 10 44  1  0
 11 12  1  0
 11 31  1  0
 12 13  1  0
 12 45  1  0
 13 14  2  0
 13 21  1  0
 14 15  1  0
 15 16  2  0
 15 22  1  0
 16 17  1  0
 16 46  1  0
 17 18  1  0
 17 21  1  0
 18 19  2  0
 18 47  1  0
 19 20  1  0
 19 48  1  0
 20 21  2  0
 22 23  2  0
 22 30  1  0
 23 24  1  0
 23 49  1  0
 24 25  2  0
 24 50  1  0
 25 26  1  0
 25 29  1  0
 26 27  2  0
 26 51  1  0
 27 28  1  0
 28 29  1  0
 28 52  1  0
 29 30  2  0
 30 53  1  0
 31 32  2  0
 31 54  1  0
 32 55  1  0
M  END
>  <s_m_entry_id>  (1) 
1017

>  <IC50[nM]>  (1) 
23.1

>  <s_m_Source_Path>  (1) 
/projects/mai/users/kmzp800_harry/pmx_colab/docking_jobs/syk

>  <s_m_Source_File>  (1) 
tnks2_lig.sdf

>  <i_m_Source_File_Index>  (1) 
30

>  <s_m_job_name>  (1) 
glide-dock_SP_tnks2_core_const

>  <r_i_docking_score>  (1) 
-7.18112322173025

>  <r_i_glide_gscore>  (1) 
-7.18112322173025

>  <r_i_glide_emodel>  (1) 
-48.6106112502449

>  <index_string>  (1) 
29:0:0

$$$$
