13:0:0
     RDKit          3D

 61 65  0  0  1  0  0  0  0  0999 V2000
    5.8240   -0.5410   16.4670 C   0  0  0  0  0  0  0  0  0  0  0  0
    4.5380   -0.9530   16.3300 N   0  0  0  0  0  0  0  0  0  0  0  0
    4.0910   -0.2510   15.2750 C   0  0  0  0  0  0  0  0  0  0  0  0
    2.8160   -0.3060   14.7170 C   0  0  0  0  0  0  0  0  0  0  0  0
    1.8240   -1.1800   15.2720 N   0  0  0  0  0  0  0  0  0  0  0  0
    2.5590    0.4950   13.6400 N   0  0  0  0  0  0  0  0  0  0  0  0
    3.5100    1.3300   13.1100 C   0  0  0  0  0  0  0  0  0  0  0  0
    4.7910    1.3640   13.6960 C   0  0  0  0  0  0  0  0  0  0  0  0
    5.0160    0.5610   14.7610 N   0  0  0  0  0  0  0  0  0  0  0  0
    6.1280    0.4060   15.4910 C   0  0  0  0  0  0  0  0  0  0  0  0
    0.4720   -1.3660   14.8320 C   0  0  0  0  0  0  0  0  0  0  0  0
   -0.2840   -2.4890   15.1910 C   0  0  0  0  0  0  0  0  0  0  0  0
   -1.5990   -2.6260   14.7370 C   0  0  0  0  0  0  0  0  0  0  0  0
   -2.1740   -1.6400   13.9190 C   0  0  0  0  0  0  0  0  0  0  0  0
   -1.4220   -0.5140   13.5570 C   0  0  0  0  0  0  0  0  0  0  0  0
   -0.1020   -0.3860   14.0190 C   0  0  0  0  0  0  0  0  0  0  0  0
   -3.4880   -1.7550   13.4520 O   0  0  0  0  0  0  0  0  0  0  0  0
   -4.0640   -2.9950   13.0630 C   0  0  0  0  0  0  0  0  0  0  0  0
   -2.0010    0.4640   12.7420 O   0  0  0  0  0  0  0  0  0  0  0  0
   -1.3650    0.9690   11.5750 C   0  0  0  0  0  0  0  0  0  0  0  0
    3.1940    2.1810   11.9430 C   0  0  0  0  0  0  0  0  0  0  0  0
    4.1600    2.4260   10.9550 C   0  0  0  0  0  0  0  0  0  0  0  0
    3.8620    3.2290    9.8530 C   0  0  0  0  0  0  0  0  0  0  0  0
    2.5930    3.7960    9.7290 C   0  0  0  0  0  0  0  0  0  0  0  0
    1.6120    3.5650   10.7030 C   0  0  0  0  0  0  0  0  0  0  0  0
    1.9200    2.7570   11.8080 C   0  0  0  0  0  0  0  0  0  0  0  0
    0.2750    4.1670   10.5640 C   0  0  0  0  0  0  0  0  0  0  0  0
   -0.1410    4.5030    9.4200 O   0  0  0  0  0  0  0  0  0  0  0  0
   -0.5440    4.3680   11.7260 N   0  0  0  0  0  0  0  0  0  0  0  0
   -1.8590    4.9370   11.7560 C   0  0  0  0  0  0  0  0  0  0  0  0
   -1.9960    6.3020   12.0260 C   0  0  0  0  0  0  0  0  0  0  0  0
   -3.2630    6.8930   12.0630 C   0  0  0  0  0  0  0  0  0  0  0  0
   -4.4020    6.1190   11.8310 C   0  0  0  0  0  0  0  0  0  0  0  0
   -4.2820    4.7500   11.5600 C   0  0  0  0  0  0  0  0  0  0  0  0
   -3.0090    4.1670   11.5240 C   0  0  0  0  0  0  0  0  0  0  0  0
   -5.4840    3.9370   11.3160 C   0  0  0  0  0  0  0  0  0  0  0  0
   -6.6070    4.4860   11.1610 O   0  0  0  0  0  0  0  0  0  0  0  0
   -5.3910    2.5500   11.2560 O   0  0  0  0  0  0  0  0  0  0  0  0
    6.5235   -0.9017   17.2356 H   0  0  0  0  0  0  0  0  0  0  0  0
    2.1178   -1.7415   16.0840 H   0  0  0  0  0  0  0  0  0  0  0  0
    5.5804    2.0205   13.3012 H   0  0  0  0  0  0  0  0  0  0  0  0
    7.0887    0.9226   15.3487 H   0  0  0  0  0  0  0  0  0  0  0  0
    0.1584   -3.2656   15.8322 H   0  0  0  0  0  0  0  0  0  0  0  0
   -2.1866   -3.5111   15.0221 H   0  0  0  0  0  0  0  0  0  0  0  0
    0.4881    0.4984   13.7367 H   0  0  0  0  0  0  0  0  0  0  0  0
   -4.3321   -3.5722   13.9602 H   0  0  0  0  0  0  0  0  0  0  0  0
   -4.9673   -2.8078   12.4639 H   0  0  0  0  0  0  0  0  0  0  0  0
   -3.3382   -3.5645   12.4639 H   0  0  0  0  0  0  0  0  0  0  0  0
   -0.5343    1.6286   11.8664 H   0  0  0  0  0  0  0  0  0  0  0  0
   -0.9758    0.1312   10.9778 H   0  0  0  0  0  0  0  0  0  0  0  0
   -2.0928    1.5379   10.9778 H   0  0  0  0  0  0  0  0  0  0  0  0
    5.1615    1.9810   11.0500 H   0  0  0  0  0  0  0  0  0  0  0  0
    4.6260    3.4146    9.0837 H   0  0  0  0  0  0  0  0  0  0  0  0
    2.3608    4.4292    8.8600 H   0  0  0  0  0  0  0  0  0  0  0  0
    1.1554    2.5726   12.5770 H   0  0  0  0  0  0  0  0  0  0  0  0
   -0.1463    4.0735   12.6293 H   0  0  0  0  0  0  0  0  0  0  0  0
   -1.1015    6.9150   12.2105 H   0  0  0  0  0  0  0  0  0  0  0  0
   -3.3624    7.9678   12.2749 H   0  0  0  0  0  0  0  0  0  0  0  0
   -5.3974    6.5863   11.8612 H   0  0  0  0  0  0  0  0  0  0  0  0
   -2.9095    3.0924   11.3113 H   0  0  0  0  0  0  0  0  0  0  0  0
   -6.2018    2.0062   11.0917 H   0  0  0  0  0  0  0  0  0  0  0  0
  1  2  1  0
  1 10  2  0
  2  3  2  0
  3  4  1  0
  3  9  1  0
  4  5  1  0
  4  6  2  0
  5 11  1  0
  6  7  1  0
  7  8  2  0
  7 21  1  0
  8  9  1  0
  9 10  1  0
 11 12  2  0
 11 16  1  0
 12 13  1  0
 13 14  2  0
 14 15  1  0
 14 17  1  0
 15 16  2  0
 15 19  1  0
 17 18  1  0
 19 20  1  0
 21 22  2  0
 21 26  1  0
 22 23  1  0
 23 24  2  0
 24 25  1  0
 25 26  2  0
 25 27  1  0
 27 29  1  0
 27 28  2  0
 29 30  1  0
 30 31  2  0
 30 35  1  0
 31 32  1  0
 32 33  2  0
 33 34  1  0
 34 35  2  0
 34 36  1  0
 36 37  2  0
 36 38  1  0
  1 39  1  0
  5 40  1  0
  8 41  1  0
 10 42  1  0
 12 43  1  0
 13 44  1  0
 16 45  1  0
 18 46  1  0
 18 47  1  0
 18 48  1  0
 20 49  1  0
 20 50  1  0
 20 51  1  0
 22 52  1  0
 23 53  1  0
 24 54  1  0
 26 55  1  0
 29 56  1  0
 31 57  1  0
 32 58  1  0
 33 59  1  0
 35 60  1  0
 38 61  1  0
M  END
>  <s_m_entry_id>  (1) 
562

>  <MODEL>  (1) 
1

>  <REMARK>  (1) 
 VINA RESULT:   -10.708      0.000      0.000
 INTER + INTRA:         -15.883
 INTER:                 -14.804
 INTRA:                  -1.079
 UNBOUND:                -0.793
  Name = /scratch/kmzp800/tmpmhmau333/tmp5ui7q53t.pdb
  9 active torsions:
  status: ('A' for Active; 'I' for Inactive)
    1  A    between atoms: N2_5  and  C4_6
    2  A    between atoms: C7_9  and  O1_10
    3  A    between atoms: O1_10  and  C8_11
    4  A    between atoms: C9_12  and  O2_13
    5  A    between atoms: O2_13  and  C10_14
    6  A    between atoms: C12_17  and  C13_18
    7  A    between atoms: C17_22  and  C18_23
    8  A    between atoms: N4_25  and  C19_26
    9  A    between atoms: C23_30  and  C24_31
                            x       y       z     vdW  Elec       q    Type
                         _______ _______ _______ _____ _____    ______ ____

>  <TORSDO>  (1) 
F 7

>  <grid_id>  (1) 
syk-prepared

>  <grid_path>  (1) 
syk_vina.pdbqt

>  <grid_filename>  (1) 
syk_vina.pdbqt

>  <docking_score>  (1) 
-10.708

>  <compound_name>  (1) 
CHEMBL3264997

>  <index_string>  (1) 
13:0:0

>  <s_m_Source_Path>  (1) 
/projects/mai/users/kmzp800_harry/pmx_colab/docking_jobs/syk/vina_prep/output

>  <s_m_Source_File>  (1) 
ptp1b_docked_conformers.sdf

>  <i_m_Source_File_Index>  (1) 
386

$$$$
