11:0:0
     RDKit          3D

 60 63  0  0  1  0  0  0  0  0999 V2000
   41.5977   17.4862   11.9633 O   0  0  0  0  0  0  0  0  0  0  0  0
   40.7643   17.3714   12.8939 C   0  0  0  0  0  0  0  0  0  0  0  0
   39.6236   17.8864   12.8936 O   0  0  0  0  0  0  0  0  0  0  0  0
   41.1550   16.5611   14.1326 C   0  0  0  0  0  0  0  0  0  0  0  0
   42.3007   15.7579   13.8753 O   0  0  0  0  0  0  0  0  0  0  0  0
   42.5111   14.7857   14.7909 C   0  0  0  0  0  0  0  0  0  0  0  0
   41.9651   13.4732   14.6932 C   0  0  0  0  0  0  0  0  0  0  0  0
   40.9838   13.1289   13.3449 Cl  0  0  0  0  0  0  0  0  0  0  0  0
   42.3248   12.6329   15.7248 C   0  0  0  0  0  0  0  0  0  0  0  0
   43.3823   13.4678   16.8430 S   0  0  0  0  0  0  0  0  0  0  0  0
   43.2592   14.9540   15.9293 C   0  0  0  0  0  0  0  0  0  0  0  0
   43.9261   16.1475   16.4739 C   0  0  0  0  0  0  0  0  0  0  0  0
   44.1926   16.2216   17.6925 O   0  0  0  0  0  0  0  0  0  0  0  0
   44.1838   17.0864   15.6940 O   0  0  0  0  0  0  0  0  0  0  0  0
   41.9417   11.2407   15.9930 C   0  0  0  0  0  0  0  0  0  0  0  0
   42.8026   10.3385   16.6587 C   0  0  0  0  0  0  0  0  0  0  0  0
   42.4037    9.0058   16.8938 C   0  0  0  0  0  0  0  0  0  0  0  0
   41.1505    8.5419   16.4427 C   0  0  0  0  0  0  0  0  0  0  0  0
   40.2748    9.4305   15.7825 C   0  0  0  0  0  0  0  0  0  0  0  0
   40.6783   10.7650   15.5868 C   0  0  0  0  0  0  0  0  0  0  0  0
   38.9939    9.0869   15.3257 N   0  0  0  0  0  0  0  0  0  0  0  0
   38.5621    7.7292   15.0241 C   0  0  0  0  0  0  0  0  0  0  0  0
   37.0256    7.6905   15.0778 C   0  0  0  0  0  0  0  0  0  0  0  0
   36.4606    6.3339   14.6419 C   0  0  0  0  0  0  0  0  0  0  0  0
   36.9518    5.9934   13.2981 N   0  0  0  0  0  0  0  0  0  0  0  0
   38.4219    5.9490   13.1809 C   0  0  0  0  0  0  0  0  0  0  0  0
   39.0362    7.2939   13.6226 C   0  0  0  0  0  0  0  0  0  0  0  0
   35.9339    5.1053   12.2107 S   0  0  0  0  0  0  0  0  0  0  0  0
   34.5838    5.6716   12.3318 O   0  0  0  0  0  0  0  0  0  0  0  0
   36.5832    5.0849   10.8941 O   0  0  0  0  0  0  0  0  0  0  0  0
   35.9212    3.4046   12.9259 C   0  0  0  0  0  0  0  0  0  0  0  0
   36.8633    2.4872   12.1702 C   0  0  0  0  0  0  0  0  0  0  0  0
   38.1263    2.1657   12.7093 C   0  0  0  0  0  0  0  0  0  0  0  0
   38.9825    1.2842   12.0212 C   0  0  0  0  0  0  0  0  0  0  0  0
   38.5833    0.7310   10.7888 C   0  0  0  0  0  0  0  0  0  0  0  0
   37.3309    1.0629   10.2406 C   0  0  0  0  0  0  0  0  0  0  0  0
   36.4686    1.9337   10.9328 C   0  0  0  0  0  0  0  0  0  0  0  0
   41.3619   17.2475   14.9555 H   0  0  0  0  0  0  0  0  0  0  0  0
   40.3043   15.9441   14.4292 H   0  0  0  0  0  0  0  0  0  0  0  0
   43.7787   10.6594   16.9924 H   0  0  0  0  0  0  0  0  0  0  0  0
   43.0693    8.3292   17.4089 H   0  0  0  0  0  0  0  0  0  0  0  0
   40.8755    7.5145   16.6254 H   0  0  0  0  0  0  0  0  0  0  0  0
   39.9918   11.4448   15.1125 H   0  0  0  0  0  0  0  0  0  0  0  0
   38.5280    9.8116   14.7886 H   0  0  0  0  0  0  0  0  0  0  0  0
   38.9487    7.0357   15.7709 H   0  0  0  0  0  0  0  0  0  0  0  0
   36.6831    7.9200   16.0871 H   0  0  0  0  0  0  0  0  0  0  0  0
   36.6122    8.4652   14.4297 H   0  0  0  0  0  0  0  0  0  0  0  0
   36.7541    5.5509   15.3422 H   0  0  0  0  0  0  0  0  0  0  0  0
   35.3714    6.3746   14.6461 H   0  0  0  0  0  0  0  0  0  0  0  0
   38.8075    5.1322   13.7918 H   0  0  0  0  0  0  0  0  0  0  0  0
   38.7099    5.7354   12.1513 H   0  0  0  0  0  0  0  0  0  0  0  0
   38.7625    8.0593   12.8952 H   0  0  0  0  0  0  0  0  0  0  0  0
   40.1248    7.2267   13.5992 H   0  0  0  0  0  0  0  0  0  0  0  0
   36.1644    3.4557   13.9861 H   0  0  0  0  0  0  0  0  0  0  0  0
   34.9064    3.0161   12.8417 H   0  0  0  0  0  0  0  0  0  0  0  0
   38.4400    2.5799   13.6561 H   0  0  0  0  0  0  0  0  0  0  0  0
   39.9434    1.0272   12.4415 H   0  0  0  0  0  0  0  0  0  0  0  0
   39.2342    0.0421   10.2684 H   0  0  0  0  0  0  0  0  0  0  0  0
   37.0273    0.6369    9.2954 H   0  0  0  0  0  0  0  0  0  0  0  0
   35.5037    2.1726   10.5101 H   0  0  0  0  0  0  0  0  0  0  0  0
  1  2  2  0
  2  3  1  0
  2  4  1  0
  4  5  1  0
  4 38  1  0
  4 39  1  0
  5  6  1  0
  6 11  2  0
  6  7  1  0
  7  8  1  0
  7  9  2  0
  9 10  1  0
  9 15  1  0
 10 11  1  0
 11 12  1  0
 12 13  2  0
 12 14  1  0
 15 20  1  0
 15 16  2  0
 16 17  1  0
 16 40  1  0
 17 18  2  0
 17 41  1  0
 18 19  1  0
 18 42  1  0
 19 20  2  0
 19 21  1  0
 20 43  1  0
 21 22  1  0
 21 44  1  0
 22 27  1  0
 22 23  1  0
 22 45  1  0
 23 24  1  0
 23 46  1  0
 23 47  1  0
 24 25  1  0
 24 48  1  0
 24 49  1  0
 25 26  1  0
 25 28  1  0
 26 27  1  0
 26 50  1  0
 26 51  1  0
 27 52  1  0
 27 53  1  0
 28 29  2  0
 28 30  2  0
 28 31  1  0
 31 32  1  0
 31 54  1  0
 31 55  1  0
 32 37  1  0
 32 33  2  0
 33 34  1  0
 33 56  1  0
 34 35  2  0
 34 57  1  0
 35 36  1  0
 35 58  1  0
 36 37  2  0
 36 59  1  0
 37 60  1  0
M  CHG  2   3  -1  14  -1
M  END
>  <s_m_entry_id>  (1) 
464

>  <i_f3d_flags>  (1) 
0

>  <r_epik_Ionization_Penalty>  (1) 
  0.0005

>  <r_epik_State_Penalty>  (1) 
  0.0002

>  <i_epik_Tot_Q>  (1) 
-2

>  <s_m_job_name>  (1) 
glide-dock_SP_ptp1b_no_cons

>  <r_i_docking_score>  (1) 
-9.31940426885691

>  <r_i_glide_gscore>  (1) 
-9.3196042688569

>  <r_i_glide_emodel>  (1) 
-139.167294526459

>  <index_string>  (1) 
11:0:0

$$$$
