6:0:0
     RDKit          3D

 48 51  0  0  1  0  0  0  0  0999 V2000
   38.9519   35.9743   16.2891 F   0  0  0  0  0  0  0  0  0  0  0  0
   37.8188   35.9494   17.0139 C   0  0  0  0  0  0  0  0  0  0  0  0
   36.6101   35.5770   16.4016 C   0  0  0  0  0  0  0  0  0  0  0  0
   35.4287   35.5492   17.1620 C   0  0  0  0  0  0  0  0  0  0  0  0
   34.2772   35.1458   16.5764 F   0  0  0  0  0  0  0  0  0  0  0  0
   35.4421   35.8886   18.5298 C   0  0  0  0  0  0  0  0  0  0  0  0
   36.6679   36.2754   19.1334 C   0  0  0  0  0  0  0  0  0  0  0  0
   37.8474   36.3173   18.3721 C   0  0  0  0  0  0  0  0  0  0  0  0
   34.2544   35.7740   19.2189 O   0  0  0  0  0  0  0  0  0  0  0  0
   34.1924   36.2508   20.4972 C   0  0  0  0  0  0  0  0  0  0  0  0
   34.1439   37.5781   20.7028 C   0  0  0  0  0  0  0  0  0  0  0  0
   34.2300   35.2874   21.6034 C   0  0  0  0  0  0  0  0  0  0  0  0
   34.2878   34.0752   21.3899 O   0  0  0  0  0  0  0  0  0  0  0  0
   34.2327   35.8125   22.8672 N   0  0  0  0  0  0  0  0  0  0  0  0
   34.2990   34.9130   24.0316 C   0  0  0  0  0  0  0  0  0  0  0  0
   34.1898   37.2233   23.1371 C   0  0  0  0  0  0  0  0  0  0  0  0
   34.1522   38.1157   22.0462 C   0  0  0  0  0  0  0  0  0  0  0  0
   34.1921   37.7176   24.3955 N   0  0  0  0  0  0  0  0  0  0  0  0
   34.1509   39.0407   24.5534 C   0  0  0  0  0  0  0  0  0  0  0  0
   34.1518   39.9493   23.5837 N   0  0  0  0  0  0  0  0  0  0  0  0
   34.1455   39.4924   22.3203 C   0  0  0  0  0  0  0  0  0  0  0  0
   34.0816   39.5490   25.8322 N   0  0  0  0  0  0  0  0  0  0  0  0
   34.4370   38.8137   27.0455 C   0  0  0  0  0  0  0  0  0  0  0  0
   35.8732   39.1473   27.4900 C   0  0  0  0  0  0  0  0  0  0  0  0
   36.0617   40.6163   27.9032 C   0  0  0  0  0  0  0  0  0  0  0  0
   33.4002   39.0344   28.1648 C   0  0  0  0  0  0  0  0  0  0  0  0
   33.3379   40.4827   28.6658 C   0  0  0  0  0  0  0  0  0  0  0  0
   34.9653   41.0357   29.3067 S   0  0  0  0  0  0  0  0  0  0  0  0
   34.9537   42.4967   29.4753 O   0  0  0  0  0  0  0  0  0  0  0  0
   35.3298   40.1582   30.4302 O   0  0  0  0  0  0  0  0  0  0  0  0
   36.5930   35.3056   15.3577 H   0  0  0  0  0  0  0  0  0  0  0  0
   36.7287   36.5334   20.1794 H   0  0  0  0  0  0  0  0  0  0  0  0
   38.7813   36.6044   18.8311 H   0  0  0  0  0  0  0  0  0  0  0  0
   34.1280   38.2710   19.8754 H   0  0  0  0  0  0  0  0  0  0  0  0
   33.3964   35.0251   24.6339 H   0  0  0  0  0  0  0  0  0  0  0  0
   34.3969   33.8536   23.7938 H   0  0  0  0  0  0  0  0  0  0  0  0
   35.1523   35.1728   24.6593 H   0  0  0  0  0  0  0  0  0  0  0  0
   34.1321   40.2293   21.5309 H   0  0  0  0  0  0  0  0  0  0  0  0
   34.0465   40.5623   25.8893 H   0  0  0  0  0  0  0  0  0  0  0  0
   34.4170   37.7470   26.8265 H   0  0  0  0  0  0  0  0  0  0  0  0
   36.1475   38.5093   28.3309 H   0  0  0  0  0  0  0  0  0  0  0  0
   36.5662   38.8969   26.6870 H   0  0  0  0  0  0  0  0  0  0  0  0
   37.0873   40.8099   28.2139 H   0  0  0  0  0  0  0  0  0  0  0  0
   35.8261   41.3026   27.0897 H   0  0  0  0  0  0  0  0  0  0  0  0
   32.4130   38.7334   27.8126 H   0  0  0  0  0  0  0  0  0  0  0  0
   33.6318   38.3774   29.0048 H   0  0  0  0  0  0  0  0  0  0  0  0
   32.6052   40.5978   29.4656 H   0  0  0  0  0  0  0  0  0  0  0  0
   33.0425   41.1494   27.8598 H   0  0  0  0  0  0  0  0  0  0  0  0
  1  2  1  0
  2  8  2  0
  2  3  1  0
  3  4  2  0
  3 31  1  0
  4  5  1  0
  4  6  1  0
  6  7  2  0
  6  9  1  0
  7  8  1  0
  7 32  1  0
  8 33  1  0
  9 10  1  0
 10 11  2  0
 10 12  1  0
 11 17  1  0
 11 34  1  0
 12 13  2  0
 12 14  1  0
 14 15  1  0
 14 16  1  0
 15 35  1  0
 15 36  1  0
 15 37  1  0
 16 17  2  0
 16 18  1  0
 17 21  1  0
 18 19  2  0
 19 20  1  0
 19 22  1  0
 20 21  2  0
 21 38  1  0
 22 23  1  0
 22 39  1  0
 23 24  1  0
 23 26  1  0
 23 40  1  0
 24 25  1  0
 24 41  1  0
 24 42  1  0
 25 28  1  0
 25 43  1  0
 25 44  1  0
 26 27  1  0
 26 45  1  0
 26 46  1  0
 27 28  1  0
 27 47  1  0
 27 48  1  0
 28 29  2  0
 28 30  2  0
M  END
>  <s_m_entry_id>  (1) 
723

>  <i_f3d_flags>  (1) 
0

>  <r_lp_tautomer_probability>  (1) 
1

>  <r_epik_Ionization_Penalty>  (1) 
  0.0000

>  <r_epik_State_Penalty>  (1) 
  0.0000

>  <i_epik_Tot_Q>  (1) 
0

>  <s_m_job_name>  (1) 
glide-dock_SP_p38_all_ligs_no_cons_10_poses

>  <r_i_docking_score>  (1) 
-7.25944154297963

>  <r_i_glide_gscore>  (1) 
-7.25944154297963

>  <r_i_glide_emodel>  (1) 
-61.4715108357779

>  <index_string>  (1) 
6:0:0

$$$$
