21:0:0
     RDKit          3D

 49 51  0  0  1  0  0  0  0  0999 V2000
   38.9521   37.1424   15.3273 F   0  0  0  0  0  0  0  0  0  0  0  0
   38.1547   36.4778   16.1935 C   0  0  0  0  0  0  0  0  0  0  0  0
   36.8905   36.0415   15.7768 C   0  0  0  0  0  0  0  0  0  0  0  0
   35.9526   35.5563   16.6956 C   0  0  0  0  0  0  0  0  0  0  0  0
   34.7425   35.1207   16.2723 F   0  0  0  0  0  0  0  0  0  0  0  0
   36.2596   35.5935   18.0644 C   0  0  0  0  0  0  0  0  0  0  0  0
   37.5664   35.9509   18.4863 C   0  0  0  0  0  0  0  0  0  0  0  0
   38.5311   36.3409   17.5381 C   0  0  0  0  0  0  0  0  0  0  0  0
   35.3278   35.1476   18.9467 O   0  0  0  0  0  0  0  0  0  0  0  0
   35.1273   35.8051   20.1277 C   0  0  0  0  0  0  0  0  0  0  0  0
   35.2090   37.1517   20.2486 C   0  0  0  0  0  0  0  0  0  0  0  0
   34.5535   34.9859   21.1910 C   0  0  0  0  0  0  0  0  0  0  0  0
   34.3333   33.7868   21.0187 O   0  0  0  0  0  0  0  0  0  0  0  0
   34.2536   35.6097   22.3622 N   0  0  0  0  0  0  0  0  0  0  0  0
   33.7783   34.7620   23.4688 C   0  0  0  0  0  0  0  0  0  0  0  0
   34.3369   37.0272   22.5497 C   0  0  0  0  0  0  0  0  0  0  0  0
   34.8138   37.8159   21.4840 C   0  0  0  0  0  0  0  0  0  0  0  0
   33.9564   37.6275   23.6960 N   0  0  0  0  0  0  0  0  0  0  0  0
   34.0324   38.9568   23.7788 C   0  0  0  0  0  0  0  0  0  0  0  0
   34.4758   39.7830   22.8291 N   0  0  0  0  0  0  0  0  0  0  0  0
   34.8650   39.2129   21.6674 C   0  0  0  0  0  0  0  0  0  0  0  0
   33.5976   39.5494   24.9515 N   0  0  0  0  0  0  0  0  0  0  0  0
   33.0689   38.8325   26.1097 C   0  0  0  0  0  0  0  0  0  0  0  0
   31.6327   38.3190   25.8427 C   0  0  0  0  0  0  0  0  0  0  0  0
   31.2177   37.1512   26.7549 C   0  0  0  0  0  0  0  0  0  0  0  0
   31.9089   35.9795   26.3795 O   0  0  0  0  0  0  0  0  0  0  0  0
   33.1202   39.7242   27.3692 C   0  0  0  0  0  0  0  0  0  0  0  0
   34.5419   40.0717   27.8295 C   0  0  0  0  0  0  0  0  0  0  0  0
   34.4830   40.7961   29.0403 O   0  0  0  0  0  0  0  0  0  0  0  0
   36.6145   36.2043   14.7511 H   0  0  0  0  0  0  0  0  0  0  0  0
   37.8365   35.9203   19.5319 H   0  0  0  0  0  0  0  0  0  0  0  0
   39.5170   36.6468   17.8552 H   0  0  0  0  0  0  0  0  0  0  0  0
   35.5346   37.7762   19.4290 H   0  0  0  0  0  0  0  0  0  0  0  0
   34.4671   33.9344   23.6462 H   0  0  0  0  0  0  0  0  0  0  0  0
   33.6778   35.2867   24.4186 H   0  0  0  0  0  0  0  0  0  0  0  0
   32.7994   34.3485   23.2287 H   0  0  0  0  0  0  0  0  0  0  0  0
   35.2153   39.8712   20.8889 H   0  0  0  0  0  0  0  0  0  0  0  0
   33.6900   40.5562   25.0279 H   0  0  0  0  0  0  0  0  0  0  0  0
   33.7201   37.9729   26.2748 H   0  0  0  0  0  0  0  0  0  0  0  0
   31.5208   37.9939   24.8082 H   0  0  0  0  0  0  0  0  0  0  0  0
   30.9292   39.1455   25.9613 H   0  0  0  0  0  0  0  0  0  0  0  0
   30.1523   36.9572   26.6618 H   0  0  0  0  0  0  0  0  0  0  0  0
   31.4049   37.3682   27.8064 H   0  0  0  0  0  0  0  0  0  0  0  0
   32.7484   36.2249   26.0259 H   0  0  0  0  0  0  0  0  0  0  0  0
   32.5491   40.6375   27.1959 H   0  0  0  0  0  0  0  0  0  0  0  0
   32.6211   39.2161   28.1929 H   0  0  0  0  0  0  0  0  0  0  0  0
   35.1264   39.1649   27.9899 H   0  0  0  0  0  0  0  0  0  0  0  0
   35.0678   40.6695   27.0856 H   0  0  0  0  0  0  0  0  0  0  0  0
   33.9354   41.5570   28.9140 H   0  0  0  0  0  0  0  0  0  0  0  0
  1  2  1  0
  2  8  2  0
  2  3  1  0
  3  4  2  0
  3 30  1  0
  4  5  1  0
  4  6  1  0
  6  7  2  0
  6  9  1  0
  7  8  1  0
  7 31  1  0
  8 32  1  0
  9 10  1  0
 10 11  2  0
 10 12  1  0
 11 17  1  0
 11 33  1  0
 12 13  2  0
 12 14  1  0
 14 15  1  0
 14 16  1  0
 15 34  1  0
 15 35  1  0
 15 36  1  0
 16 17  2  0
 16 18  1  0
 17 21  1  0
 18 19  2  0
 19 20  1  0
 19 22  1  0
 20 21  2  0
 21 37  1  0
 22 23  1  0
 22 38  1  0
 23 24  1  0
 23 27  1  0
 23 39  1  0
 24 25  1  0
 24 40  1  0
 24 41  1  0
 25 26  1  0
 25 42  1  0
 25 43  1  0
 26 44  1  0
 27 28  1  0
 27 45  1  0
 27 46  1  0
 28 29  1  0
 28 47  1  0
 28 48  1  0
 29 49  1  0
M  END
>  <s_m_entry_id>  (1) 
273

>  <i_f3d_flags>  (1) 
0

>  <r_lp_tautomer_probability>  (1) 
1

>  <r_epik_Ionization_Penalty>  (1) 
  0.0000

>  <r_epik_State_Penalty>  (1) 
  0.0000

>  <i_epik_Tot_Q>  (1) 
0

>  <s_m_job_name>  (1) 
glide-dock_SP_p38_core_cons_top_1

>  <r_i_docking_score>  (1) 
-6.50976783414444

>  <r_i_glide_gscore>  (1) 
-6.50976783414444

>  <r_i_glide_emodel>  (1) 
-48.2958484496421

>  <index_string>  (1) 
21:0:0

$$$$
