8:0:0
     RDKit          3D

 43 46  0  0  1  0  0  0  0  0999 V2000
   33.3920   35.5090   19.8900 C   0  0  0  0  0  0  0  0  0  0  0  0
   33.2670   36.7520   20.5300 C   0  0  0  0  0  0  0  0  0  0  0  0
   33.0230   36.8020   21.9000 C   0  0  0  0  0  0  0  0  0  0  0  0
   32.9000   38.0120   22.5770 C   0  0  0  0  0  0  0  0  0  0  0  0
   32.6620   38.0110   23.9140 N   0  0  0  0  0  0  0  0  0  0  0  0
   32.5390   36.8440   24.6100 C   0  0  0  0  0  0  0  0  0  0  0  0
   32.2870   36.8560   26.0200 N   0  0  0  0  0  0  0  0  0  0  0  0
   32.6550   35.6540   23.9620 N   0  0  0  0  0  0  0  0  0  0  0  0
   32.8940   35.6080   22.6250 C   0  0  0  0  0  0  0  0  0  0  0  0
   33.0060   34.4130   21.9880 N   0  0  0  0  0  0  0  0  0  0  0  0
   33.2460   34.3370   20.6500 C   0  0  0  0  0  0  0  0  0  0  0  0
   33.3370   33.2090   20.0980 O   0  0  0  0  0  0  0  0  0  0  0  0
   32.1410   38.0620   26.8300 C   0  0  0  0  0  0  0  0  0  0  0  0
   33.5070   38.6190   27.2350 C   0  0  0  0  0  0  0  0  0  0  0  0
   33.3020   39.7560   28.2350 C   0  0  0  0  0  0  0  0  0  0  0  0
   32.6160   39.2820   29.3690 O   0  0  0  0  0  0  0  0  0  0  0  0
   31.2940   39.0250   28.9630 C   0  0  0  0  0  0  0  0  0  0  0  0
   31.2580   37.8000   28.0510 C   0  0  0  0  0  0  0  0  0  0  0  0
   33.6160   35.4140   18.5080 O   0  0  0  0  0  0  0  0  0  0  0  0
   37.2480   35.9500   18.1040 C   0  0  0  0  0  0  0  0  0  0  0  0
   35.9850   35.8070   18.6820 C   0  0  0  0  0  0  0  0  0  0  0  0
   34.8660   35.5390   17.8860 C   0  0  0  0  0  0  0  0  0  0  0  0
   35.0200   35.4490   16.4870 C   0  0  0  0  0  0  0  0  0  0  0  0
   33.9470   35.2770   15.6760 F   0  0  0  0  0  0  0  0  0  0  0  0
   36.2860   35.5950   15.9130 C   0  0  0  0  0  0  0  0  0  0  0  0
   37.4010   35.8350   16.7210 C   0  0  0  0  0  0  0  0  0  0  0  0
   38.6260   35.9730   16.1610 F   0  0  0  0  0  0  0  0  0  0  0  0
   33.3614   37.6829   19.9516 H   0  0  0  0  0  0  0  0  0  0  0  0
   32.9950   38.9630   22.0325 H   0  0  0  0  0  0  0  0  0  0  0  0
   32.2026   35.9473   26.4975 H   0  0  0  0  0  0  0  0  0  0  0  0
   32.9069   33.5432   22.5308 H   0  0  0  0  0  0  0  0  0  0  0  0
   31.6398   38.8256   26.2170 H   0  0  0  0  0  0  0  0  0  0  0  0
   34.1074   37.8228   27.6993 H   0  0  0  0  0  0  0  0  0  0  0  0
   34.0341   38.9955   26.3460 H   0  0  0  0  0  0  0  0  0  0  0  0
   34.2812   40.1529   28.5411 H   0  0  0  0  0  0  0  0  0  0  0  0
   32.7088   40.5516   27.7605 H   0  0  0  0  0  0  0  0  0  0  0  0
   30.6702   38.8380   29.8495 H   0  0  0  0  0  0  0  0  0  0  0  0
   30.9084   39.8965   28.4136 H   0  0  0  0  0  0  0  0  0  0  0  0
   30.2241   37.6131   27.7252 H   0  0  0  0  0  0  0  0  0  0  0  0
   31.6294   36.9198   28.5962 H   0  0  0  0  0  0  0  0  0  0  0  0
   38.1231   36.1534   18.7387 H   0  0  0  0  0  0  0  0  0  0  0  0
   35.8689   35.9058   19.7714 H   0  0  0  0  0  0  0  0  0  0  0  0
   36.4052   35.5208   14.8220 H   0  0  0  0  0  0  0  0  0  0  0  0
  1  2  2  0
  1 11  1  0
  1 19  1  0
  2  3  1  0
  2 28  1  0
  3  4  2  0
  3  9  1  0
  4  5  1  0
  4 29  1  0
  5  6  2  0
  6  7  1  0
  6  8  1  0
  7 13  1  0
  7 30  1  0
  8  9  2  0
  9 10  1  0
 10 11  1  0
 10 31  1  0
 11 12  2  0
 13 14  1  0
 13 18  1  0
 13 32  1  0
 14 15  1  0
 14 33  1  0
 14 34  1  0
 15 16  1  0
 15 35  1  0
 15 36  1  0
 16 17  1  0
 17 18  1  0
 17 37  1  0
 17 38  1  0
 18 39  1  0
 18 40  1  0
 19 22  1  0
 20 21  2  0
 20 26  1  0
 20 41  1  0
 21 22  1  0
 21 42  1  0
 22 23  2  0
 23 24  1  0
 23 25  1  0
 25 26  2  0
 25 43  1  0
 26 27  1  0
M  END
>  <s_m_entry_id>  (1) 
1363

>  <MODEL>  (1) 
1

>  <REMARK>  (1) 
 VINA RESULT:    -7.942      0.000      0.000
 INTER + INTRA:          -9.784
 INTER:                  -9.335
 INTRA:                  -0.449
 UNBOUND:                -0.449
  Name = /scratch/kmzp800/tmpvmh80127/tmprn427q73.pdb
  3 active torsions:
  status: ('A' for Active; 'I' for Inactive)
    1  A    between atoms: C3_3  and  O1_4
    2  A    between atoms: O1_4  and  C4_5
    3  A    between atoms: N2_11  and  C9_12
                            x       y       z     vdW  Elec       q    Type
                         _______ _______ _______ _____ _____    ______ ____

>  <TORSDO>  (1) 
F 3

>  <grid_id>  (1) 
p38-prepared

>  <grid_path>  (1) 
/projects/mai/users/kmzp800_harry/pmx_colab/docking_jobs/p38/vina_docking/input_files/p38_vina.pdbqt

>  <grid_filename>  (1) 
p38_vina.pdbqt

>  <docking_score>  (1) 
-7.942

>  <compound_name>  (1) 
lig_p38a_2k

>  <index_string>  (1) 
8:0:0

>  <s_m_Source_Path>  (1) 
/projects/mai/users/kmzp800_harry/pmx_colab/docking_jobs/p38

>  <s_m_Source_File>  (1) 
p38_confs_vina_naive.sdf

>  <i_m_Source_File_Index>  (1) 
10

$$$$
