2:0:0
     RDKit          3D

 37 39  0  0  1  0  0  0  0  0999 V2000
  -14.4482  -14.7292  -27.6411 C   0  0  0  0  0  0  0  0  0  0  0  0
  -15.0370  -15.5787  -26.6777 C   0  0  0  0  0  0  0  0  0  0  0  0
  -14.5375  -13.3317  -27.5068 C   0  0  0  0  0  0  0  0  0  0  0  0
  -15.7518  -15.0048  -25.5986 C   0  0  0  0  0  0  0  0  0  0  0  0
  -14.8482  -16.9722  -26.7573 N   0  0  0  0  0  0  0  0  0  0  0  0
  -15.2420  -12.7727  -26.4263 C   0  0  0  0  0  0  0  0  0  0  0  0
  -15.8646  -13.6047  -25.4758 C   0  0  0  0  0  0  0  0  0  0  0  0
  -16.3492  -15.9371  -24.5923 C   0  0  0  0  0  0  0  0  0  0  0  0
  -16.1217  -17.2328  -24.8099 N   0  0  0  0  0  0  0  0  0  0  0  0
  -16.9943  -15.5727  -23.6200 O   0  0  0  0  0  0  0  0  0  0  0  0
  -15.3638  -17.7614  -25.8552 C   0  0  0  0  0  0  0  0  0  0  0  0
  -15.1979  -19.2429  -25.9384 C   0  0  0  0  0  0  0  0  0  0  0  0
  -15.4354  -20.0756  -24.8218 C   0  0  0  0  0  0  0  0  0  0  0  0
  -15.2043  -21.4613  -24.9074 C   0  0  0  0  0  0  0  0  0  0  0  0
  -14.7304  -22.0376  -26.1050 C   0  0  0  0  0  0  0  0  0  0  0  0
  -14.5385  -21.2053  -27.2221 C   0  0  0  0  0  0  0  0  0  0  0  0
  -14.7799  -19.8315  -27.1449 C   0  0  0  0  0  0  0  0  0  0  0  0
  -14.3771  -23.5187  -26.1519 C   0  0  0  0  0  0  0  0  0  0  0  0
  -13.8518  -23.9412  -27.3945 O   0  0  0  0  0  0  0  0  0  0  0  0
  -15.6441  -24.3692  -25.9390 C   0  0  0  0  0  0  0  0  0  0  0  0
  -13.2482  -23.7726  -25.1387 C   0  0  0  0  0  0  0  0  0  0  0  0
  -13.7456  -15.2432  -28.6779 F   0  0  0  0  0  0  0  0  0  0  0  0
  -14.0610  -12.6844  -28.2302 H   0  0  0  0  0  0  0  0  0  0  0  0
  -15.2960  -11.6991  -26.3385 H   0  0  0  0  0  0  0  0  0  0  0  0
  -16.4072  -13.1718  -24.6469 H   0  0  0  0  0  0  0  0  0  0  0  0
  -16.5634  -17.8778  -24.1671 H   0  0  0  0  0  0  0  0  0  0  0  0
  -15.7640  -19.6647  -23.8786 H   0  0  0  0  0  0  0  0  0  0  0  0
  -15.3646  -22.0742  -24.0328 H   0  0  0  0  0  0  0  0  0  0  0  0
  -14.1553  -21.5727  -28.1542 H   0  0  0  0  0  0  0  0  0  0  0  0
  -14.5876  -19.2259  -28.0191 H   0  0  0  0  0  0  0  0  0  0  0  0
  -13.6215  -24.8551  -27.3272 H   0  0  0  0  0  0  0  0  0  0  0  0
  -16.0470  -24.2457  -24.9340 H   0  0  0  0  0  0  0  0  0  0  0  0
  -15.4558  -25.4308  -26.0900 H   0  0  0  0  0  0  0  0  0  0  0  0
  -16.4266  -24.0852  -26.6444 H   0  0  0  0  0  0  0  0  0  0  0  0
  -13.5842  -23.6412  -24.1099 H   0  0  0  0  0  0  0  0  0  0  0  0
  -12.8307  -24.7727  -25.2235 H   0  0  0  0  0  0  0  0  0  0  0  0
  -12.4281  -23.0746  -25.3007 H   0  0  0  0  0  0  0  0  0  0  0  0
  1  2  2  0
  1  3  1  0
  1 22  1  0
  2  4  1  0
  2  5  1  0
  3  6  2  0
  3 23  1  0
  4  7  2  0
  4  8  1  0
  5 11  2  0
  6  7  1  0
  6 24  1  0
  7 25  1  0
  8  9  1  0
  8 10  2  0
  9 11  1  0
  9 26  1  0
 11 12  1  0
 12 13  2  0
 12 17  1  0
 13 14  1  0
 13 27  1  0
 14 15  2  0
 14 28  1  0
 15 16  1  0
 15 18  1  0
 16 17  2  0
 16 29  1  0
 17 30  1  0
 18 19  1  0
 18 20  1  0
 18 21  1  0
 19 31  1  0
 20 32  1  0
 20 33  1  0
 20 34  1  0
 21 35  1  0
 21 36  1  0
 21 37  1  0
M  END
>  <s_m_entry_id>  (1) 
444

>  <Name>  (1) 
5f

>  <IC50[nM]>  (1) 
30

>  <s_m_Source_Path>  (1) 
/projects/mai/users/kmzp800_harry/pmx_colab/docking_jobs/tnks2

>  <s_m_Source_File>  (1) 
tnks2_lig.sdf

>  <i_m_Source_File_Index>  (1) 
3

>  <s_m_job_name>  (1) 
glide-dock_SP_tnks2_core_const

>  <r_i_docking_score>  (1) 
-10.6805332657466

>  <r_i_glide_gscore>  (1) 
-10.6805332657466

>  <r_i_glide_emodel>  (1) 
-61.0110095893544

>  <index_string>  (1) 
2:0:0

$$$$
