4:0:0
     RDKit          3D

 43 45  0  0  1  0  0  0  0  0999 V2000
   42.3880    8.9390   16.9060 C   0  0  0  0  0  0  0  0  0  0  0  0
   42.8080   10.2660   16.7930 C   0  0  0  0  0  0  0  0  0  0  0  0
   42.0410   11.2020   16.0870 C   0  0  0  0  0  0  0  0  0  0  0  0
   40.8330   10.7860   15.5090 C   0  0  0  0  0  0  0  0  0  0  0  0
   40.4020    9.4550   15.6200 C   0  0  0  0  0  0  0  0  0  0  0  0
   41.1860    8.5340   16.3190 C   0  0  0  0  0  0  0  0  0  0  0  0
   42.4530   12.6210   15.9760 C   0  0  0  0  0  0  0  0  0  0  0  0
   43.4030   13.4040   17.1260 S   0  0  0  0  0  0  0  0  0  0  0  0
   43.4500   14.9000   16.3710 C   0  0  0  0  0  0  0  0  0  0  0  0
   42.7240   14.8200   15.1860 C   0  0  0  0  0  0  0  0  0  0  0  0
   42.1430   13.5460   14.9620 C   0  0  0  0  0  0  0  0  0  0  0  0
   40.9040   13.1800   13.5370 Br  0  0  0  0  0  0  0  0  0  0  0  0
   44.1650   16.0770   16.8900 C   0  0  0  0  0  0  0  0  0  0  0  0
   44.0500   16.4010   18.1010 O   0  0  0  0  0  0  0  0  0  0  0  0
   44.9690   16.8410   16.0530 O   0  0  0  0  0  0  0  0  0  0  0  0
   42.5980   15.9340   14.3410 O   0  0  0  0  0  0  0  0  0  0  0  0
   41.5880   16.9260   14.4700 C   0  0  0  0  0  0  0  0  0  0  0  0
   40.9770   17.2120   13.1410 C   0  0  0  0  0  0  0  0  0  0  0  0
   41.7100   17.3420   12.1280 O   0  0  0  0  0  0  0  0  0  0  0  0
   39.5970   17.2910   13.0130 O   0  0  0  0  0  0  0  0  0  0  0  0
   39.1740    9.0210   15.0280 N   0  0  0  0  0  0  0  0  0  0  0  0
   38.8710    7.6270   14.7370 C   0  0  0  0  0  0  0  0  0  0  0  0
   37.3600    7.4410   14.6390 C   0  0  0  0  0  0  0  0  0  0  0  0
   37.0650    6.0300   14.1270 C   0  0  0  0  0  0  0  0  0  0  0  0
   37.6390    5.8510   12.8550 O   0  0  0  0  0  0  0  0  0  0  0  0
   39.0340    5.8140   13.0400 C   0  0  0  0  0  0  0  0  0  0  0  0
   39.5440    7.2010   13.4320 C   0  0  0  0  0  0  0  0  0  0  0  0
   43.0032    8.2124   17.4570 H   0  0  0  0  0  0  0  0  0  0  0  0
   43.7515   10.5799   17.2635 H   0  0  0  0  0  0  0  0  0  0  0  0
   40.2149   11.5126   14.9613 H   0  0  0  0  0  0  0  0  0  0  0  0
   40.8567    7.4882   16.4076 H   0  0  0  0  0  0  0  0  0  0  0  0
   40.8094   16.5649   15.1581 H   0  0  0  0  0  0  0  0  0  0  0  0
   42.0384   17.8486   14.8648 H   0  0  0  0  0  0  0  0  0  0  0  0
   38.4666    9.7326   14.7953 H   0  0  0  0  0  0  0  0  0  0  0  0
   39.2586    6.9960   15.5504 H   0  0  0  0  0  0  0  0  0  0  0  0
   36.9065    7.5755   15.6321 H   0  0  0  0  0  0  0  0  0  0  0  0
   36.9379    8.1839   13.9463 H   0  0  0  0  0  0  0  0  0  0  0  0
   37.4887    5.2930   14.8251 H   0  0  0  0  0  0  0  0  0  0  0  0
   35.9761    5.8918   14.0550 H   0  0  0  0  0  0  0  0  0  0  0  0
   39.2772    5.0970   13.8380 H   0  0  0  0  0  0  0  0  0  0  0  0
   39.5157    5.5031   12.1012 H   0  0  0  0  0  0  0  0  0  0  0  0
   39.2994    7.9221   12.6381 H   0  0  0  0  0  0  0  0  0  0  0  0
   40.6351    7.1715   13.5684 H   0  0  0  0  0  0  0  0  0  0  0  0
  1  2  2  0
  1  6  1  0
  1 28  1  0
  2  3  1  0
  2 29  1  0
  3  4  2  0
  3  7  1  0
  4  5  1  0
  4 30  1  0
  5  6  2  0
  5 21  1  0
  6 31  1  0
  7  8  1  0
  7 11  2  0
  8  9  1  0
  9 13  1  0
  9 10  2  0
 10 11  1  0
 10 16  1  0
 11 12  1  0
 13 14  1  0
 13 15  2  0
 16 17  1  0
 17 18  1  0
 17 32  1  0
 17 33  1  0
 18 19  2  0
 18 20  1  0
 21 22  1  0
 21 34  1  0
 22 23  1  0
 22 27  1  0
 22 35  1  0
 23 24  1  0
 23 36  1  0
 23 37  1  0
 24 25  1  0
 24 38  1  0
 24 39  1  0
 25 26  1  0
 26 27  1  0
 26 40  1  0
 26 41  1  0
 27 42  1  0
 27 43  1  0
M  CHG  2  14  -1  20  -1
M  END
>  <s_m_entry_id>  (1) 
1350

>  <MODEL>  (1) 
1

>  <REMARK>  (1) 
 VINA RESULT:    -7.421      0.000      0.000
 INTER + INTRA:         -10.752
 INTER:                 -10.458
 INTRA:                  -0.294
 UNBOUND:                -0.294
  Name = /scratch/kmzp800/tmp19c49vep/tmpg4heyu19.pdb
  7 active torsions:
  status: ('A' for Active; 'I' for Inactive)
    1  A    between atoms: C3_3  and  C4_4
    2  A    between atoms: C5_6  and  C6_7
    3  A    between atoms: C7_10  and  O3_11
    4  A    between atoms: O3_11  and  C8_12
    5  A    between atoms: C8_12  and  C9_13
    6  A    between atoms: C12_19  and  N1_20
    7  A    between atoms: N1_20  and  C13_21
                            x       y       z     vdW  Elec       q    Type
                         _______ _______ _______ _____ _____    ______ ____

>  <TORSDO>  (1) 
F 7

>  <grid_id>  (1) 
ptp1b-prepared

>  <grid_path>  (1) 
ptp1b_vina.pdbqt

>  <grid_filename>  (1) 
ptp1b_vina.pdbqt

>  <docking_score>  (1) 
-7.421

>  <compound_name>  (1) 
lig_23477

>  <index_string>  (1) 
4:0:0

>  <s_m_Source_Path>  (1) 
/projects/mai/users/kmzp800_harry/pmx_colab/docking_jobs/ptp1b/vina_prep

>  <s_m_Source_File>  (1) 
ptp1b_vina_naive_confs.sdf

>  <i_m_Source_File_Index>  (1) 
5

$$$$
