16:0:0
     RDKit          3D

 48 50  0  0  1  0  0  0  0  0999 V2000
   42.6700    9.2500   16.9990 C   0  0  0  0  0  0  0  0  0  0  0  0
   41.4920    8.5910   16.6400 C   0  0  0  0  0  0  0  0  0  0  0  0
   40.5230    9.2340   15.8570 C   0  0  0  0  0  0  0  0  0  0  0  0
   40.7480   10.5580   15.4550 C   0  0  0  0  0  0  0  0  0  0  0  0
   41.9310   11.2260   15.8100 C   0  0  0  0  0  0  0  0  0  0  0  0
   42.8890   10.5650   16.5830 C   0  0  0  0  0  0  0  0  0  0  0  0
   39.2680    8.5250   15.5140 C   0  0  0  0  0  0  0  0  0  0  0  0
   38.8750    8.0450   13.9480 S   0  0  0  0  0  0  0  0  0  0  0  0
   37.3960    7.3470   14.3150 C   0  0  0  0  0  0  0  0  0  0  0  0
   37.1710    7.4710   15.6830 C   0  0  0  0  0  0  0  0  0  0  0  0
   38.2160    8.1490   16.3670 C   0  0  0  0  0  0  0  0  0  0  0  0
   38.1380    8.6680   18.2180 Br  0  0  0  0  0  0  0  0  0  0  0  0
   36.5080    6.7080   13.3300 C   0  0  0  0  0  0  0  0  0  0  0  0
   35.3870    7.2160   13.0690 O   0  0  0  0  0  0  0  0  0  0  0  0
   36.8950    5.5430   12.6790 O   0  0  0  0  0  0  0  0  0  0  0  0
   35.9970    6.9650   16.2620 O   0  0  0  0  0  0  0  0  0  0  0  0
   35.8470    5.6450   16.7580 C   0  0  0  0  0  0  0  0  0  0  0  0
   34.7500    4.9610   16.0240 C   0  0  0  0  0  0  0  0  0  0  0  0
   33.5510    5.2560   16.2640 O   0  0  0  0  0  0  0  0  0  0  0  0
   35.0480    3.9660   15.1030 O   0  0  0  0  0  0  0  0  0  0  0  0
   42.1720   12.5760   15.4050 N   0  0  0  0  0  0  0  0  0  0  0  0
   41.5580   13.1940   14.2360 C   0  0  0  0  0  0  0  0  0  0  0  0
   41.3040   14.6730   14.4800 C   0  0  0  0  0  0  0  0  0  0  0  0
   42.6380   15.4090   14.5620 C   0  0  0  0  0  0  0  0  0  0  0  0
   42.4040   16.8970   14.8040 C   0  0  0  0  0  0  0  0  0  0  0  0
   41.5490   17.4850   13.6850 C   0  0  0  0  0  0  0  0  0  0  0  0
   40.2150   16.7480   13.6000 C   0  0  0  0  0  0  0  0  0  0  0  0
   40.4520   15.2600   13.3560 C   0  0  0  0  0  0  0  0  0  0  0  0
   43.4252    8.7332   17.6094 H   0  0  0  0  0  0  0  0  0  0  0  0
   41.3228    7.5570   16.9750 H   0  0  0  0  0  0  0  0  0  0  0  0
   39.9886   11.0799   14.8542 H   0  0  0  0  0  0  0  0  0  0  0  0
   43.8183   11.0818   16.8647 H   0  0  0  0  0  0  0  0  0  0  0  0
   36.7860    5.0904   16.6140 H   0  0  0  0  0  0  0  0  0  0  0  0
   35.6034    5.6818   17.8300 H   0  0  0  0  0  0  0  0  0  0  0  0
   42.8168   13.1448   15.9721 H   0  0  0  0  0  0  0  0  0  0  0  0
   42.2305   13.0809   13.3729 H   0  0  0  0  0  0  0  0  0  0  0  0
   40.5961   12.6982   14.0385 H   0  0  0  0  0  0  0  0  0  0  0  0
   40.7596   14.7925   15.4283 H   0  0  0  0  0  0  0  0  0  0  0  0
   43.2313   14.9949   15.3906 H   0  0  0  0  0  0  0  0  0  0  0  0
   43.1783   15.2801   13.6126 H   0  0  0  0  0  0  0  0  0  0  0  0
   41.8869   17.0318   15.7655 H   0  0  0  0  0  0  0  0  0  0  0  0
   43.3745   17.4144   14.8237 H   0  0  0  0  0  0  0  0  0  0  0  0
   41.3638   18.5497   13.8901 H   0  0  0  0  0  0  0  0  0  0  0  0
   42.0823   17.3746   12.7292 H   0  0  0  0  0  0  0  0  0  0  0  0
   39.6663   16.8789   14.5443 H   0  0  0  0  0  0  0  0  0  0  0  0
   39.6285   17.1605   12.7658 H   0  0  0  0  0  0  0  0  0  0  0  0
   40.9736   15.1272   12.3967 H   0  0  0  0  0  0  0  0  0  0  0  0
   39.4827   14.7405   13.3300 H   0  0  0  0  0  0  0  0  0  0  0  0
  1  2  2  0
  1  6  1  0
  1 29  1  0
  2  3  1  0
  2 30  1  0
  3  4  2  0
  3  7  1  0
  4  5  1  0
  4 31  1  0
  5  6  2  0
  5 21  1  0
  6 32  1  0
  7 11  2  0
  7  8  1  0
  8  9  1  0
  9 10  2  0
  9 13  1  0
 10 16  1  0
 10 11  1  0
 11 12  1  0
 13 14  1  0
 13 15  2  0
 16 17  1  0
 17 18  1  0
 17 33  1  0
 17 34  1  0
 18 19  1  0
 18 20  2  0
 21 22  1  0
 21 35  1  0
 22 23  1  0
 22 36  1  0
 22 37  1  0
 23 24  1  0
 23 28  1  0
 23 38  1  0
 24 25  1  0
 24 39  1  0
 24 40  1  0
 25 26  1  0
 25 41  1  0
 25 42  1  0
 26 27  1  0
 26 43  1  0
 26 44  1  0
 27 28  1  0
 27 45  1  0
 27 46  1  0
 28 47  1  0
 28 48  1  0
M  CHG  2  14  -1  19  -1
M  END
>  <s_m_entry_id>  (1) 
1362

>  <MODEL>  (1) 
1

>  <REMARK>  (1) 
 VINA RESULT:    -7.194      0.000      0.000
 INTER + INTRA:         -11.565
 INTER:                 -10.558
 INTRA:                  -1.007
 UNBOUND:                -1.007
  Name = /scratch/kmzp800/tmptemoyhy5/tmpype_k4o9.pdb
  8 active torsions:
  status: ('A' for Active; 'I' for Inactive)
    1  A    between atoms: C3_3  and  C4_4
    2  A    between atoms: C5_6  and  C6_7
    3  A    between atoms: C7_10  and  O3_11
    4  A    between atoms: O3_11  and  C8_12
    5  A    between atoms: C8_12  and  C9_13
    6  A    between atoms: C12_19  and  N1_20
    7  A    between atoms: N1_20  and  C13_21
    8  A    between atoms: C13_21  and  C14_22
                            x       y       z     vdW  Elec       q    Type
                         _______ _______ _______ _____ _____    ______ ____

>  <TORSDO>  (1) 
F 8

>  <grid_id>  (1) 
ptp1b-prepared

>  <grid_path>  (1) 
ptp1b_vina.pdbqt

>  <grid_filename>  (1) 
ptp1b_vina.pdbqt

>  <docking_score>  (1) 
-7.194

>  <compound_name>  (1) 
lig_23474

>  <index_string>  (1) 
16:0:0

>  <s_m_Source_Path>  (1) 
/projects/mai/users/kmzp800_harry/pmx_colab/docking_jobs/ptp1b/vina_prep

>  <s_m_Source_File>  (1) 
ptp1b_vina_naive_confs.sdf

>  <i_m_Source_File_Index>  (1) 
17

$$$$
