13:0:0
     RDKit          3D

 46 49  0  0  1  0  0  0  0  0999 V2000
   32.3910   38.2120   24.2800 C   0  0  0  0  0  0  0  0  0  0  0  0
   33.2460   38.7770   23.3360 C   0  0  0  0  0  0  0  0  0  0  0  0
   33.7000   38.0060   22.2720 C   0  0  0  0  0  0  0  0  0  0  0  0
   34.5520   38.5390   21.3090 C   0  0  0  0  0  0  0  0  0  0  0  0
   34.9770   37.7590   20.2810 N   0  0  0  0  0  0  0  0  0  0  0  0
   34.5830   36.4590   20.1740 C   0  0  0  0  0  0  0  0  0  0  0  0
   35.0360   35.6450   19.0860 N   0  0  0  0  0  0  0  0  0  0  0  0
   33.7520   35.9240   21.1070 N   0  0  0  0  0  0  0  0  0  0  0  0
   33.2970   36.6650   22.1570 C   0  0  0  0  0  0  0  0  0  0  0  0
   32.4610   36.1180   23.0940 N   0  0  0  0  0  0  0  0  0  0  0  0
   32.0470   34.7230   22.9700 C   0  0  0  0  0  0  0  0  0  0  0  0
   32.0050   36.8670   24.1480 C   0  0  0  0  0  0  0  0  0  0  0  0
   31.2360   36.3520   25.0080 O   0  0  0  0  0  0  0  0  0  0  0  0
   35.9280   36.0970   18.0230 C   0  0  0  0  0  0  0  0  0  0  0  0
   35.5180   35.5070   16.6730 C   0  0  0  0  0  0  0  0  0  0  0  0
   36.5870   35.8500   15.6350 C   0  0  0  0  0  0  0  0  0  0  0  0
   37.8300   35.3250   16.0350 O   0  0  0  0  0  0  0  0  0  0  0  0
   38.2550   36.0900   17.1370 C   0  0  0  0  0  0  0  0  0  0  0  0
   37.3870   35.7750   18.3550 C   0  0  0  0  0  0  0  0  0  0  0  0
   31.8100   39.2220   25.6450 S   0  0  0  0  0  0  0  0  0  0  0  0
   35.1550   37.7930   28.4490 C   0  0  0  0  0  0  0  0  0  0  0  0
   35.4380   38.6850   27.4100 C   0  0  0  0  0  0  0  0  0  0  0  0
   34.4150   39.1160   26.5610 C   0  0  0  0  0  0  0  0  0  0  0  0
   33.1070   38.6560   26.7460 C   0  0  0  0  0  0  0  0  0  0  0  0
   32.8230   37.7650   27.7920 C   0  0  0  0  0  0  0  0  0  0  0  0
   31.5600   37.3130   27.9890 F   0  0  0  0  0  0  0  0  0  0  0  0
   33.8480   37.3340   28.6390 C   0  0  0  0  0  0  0  0  0  0  0  0
   33.5599   39.8269   23.4321 H   0  0  0  0  0  0  0  0  0  0  0  0
   34.8796   39.5867   21.3799 H   0  0  0  0  0  0  0  0  0  0  0  0
   34.7082   34.6692   19.0513 H   0  0  0  0  0  0  0  0  0  0  0  0
   31.9180   34.2883   23.9722 H   0  0  0  0  0  0  0  0  0  0  0  0
   31.0946   34.6705   22.4222 H   0  0  0  0  0  0  0  0  0  0  0  0
   32.8166   34.1594   22.4222 H   0  0  0  0  0  0  0  0  0  0  0  0
   35.8387   37.1908   17.9475 H   0  0  0  0  0  0  0  0  0  0  0  0
   35.4260   34.4144   16.7606 H   0  0  0  0  0  0  0  0  0  0  0  0
   34.5499   35.9268   16.3624 H   0  0  0  0  0  0  0  0  0  0  0  0
   36.3042   35.4178   14.6638 H   0  0  0  0  0  0  0  0  0  0  0  0
   36.6677   36.9435   15.5464 H   0  0  0  0  0  0  0  0  0  0  0  0
   39.3040   35.8499   17.3648 H   0  0  0  0  0  0  0  0  0  0  0  0
   38.1626   37.1586   16.8931 H   0  0  0  0  0  0  0  0  0  0  0  0
   37.7144   36.3858   19.2092 H   0  0  0  0  0  0  0  0  0  0  0  0
   37.4831   34.7105   18.6149 H   0  0  0  0  0  0  0  0  0  0  0  0
   35.9603   37.4525   29.1166 H   0  0  0  0  0  0  0  0  0  0  0  0
   36.4658   39.0475   27.2609 H   0  0  0  0  0  0  0  0  0  0  0  0
   34.6390   39.8189   25.7450 H   0  0  0  0  0  0  0  0  0  0  0  0
   33.6260   36.6324   29.4566 H   0  0  0  0  0  0  0  0  0  0  0  0
  1 20  1  0
  1  2  2  0
  1 12  1  0
  2  3  1  0
  2 28  1  0
  3  4  2  0
  3  9  1  0
  4  5  1  0
  4 29  1  0
  5  6  2  0
  6  8  1  0
  6  7  1  0
  7 14  1  0
  7 30  1  0
  8  9  2  0
  9 10  1  0
 10 12  1  0
 10 11  1  0
 11 31  1  0
 11 32  1  0
 11 33  1  0
 12 13  2  0
 14 19  1  0
 14 15  1  0
 14 34  1  0
 15 16  1  0
 15 35  1  0
 15 36  1  0
 16 17  1  0
 16 37  1  0
 16 38  1  0
 17 18  1  0
 18 19  1  0
 18 39  1  0
 18 40  1  0
 19 41  1  0
 19 42  1  0
 20 24  1  0
 21 27  2  0
 21 22  1  0
 21 43  1  0
 22 23  2  0
 22 44  1  0
 23 24  1  0
 23 45  1  0
 24 25  2  0
 25 26  1  0
 25 27  1  0
 27 46  1  0
M  END
>  <s_m_entry_id>  (1) 
1368

>  <MODEL>  (1) 
1

>  <REMARK>  (1) 
 VINA RESULT:    -7.734      0.000      0.000
 INTER + INTRA:          -9.713
 INTER:                  -9.090
 INTRA:                  -0.623
 UNBOUND:                -0.623
  Name = /scratch/kmzp800/tmpcgqigpb6/tmps7n_upu0.pdb
  4 active torsions:
  status: ('A' for Active; 'I' for Inactive)
    1  A    between atoms: C4_4  and  S1_5
    2  A    between atoms: S1_5  and  C5_6
    3  A    between atoms: N2_12  and  C10_13
    4  A    between atoms: N4_21  and  C16_22
                            x       y       z     vdW  Elec       q    Type
                         _______ _______ _______ _____ _____    ______ ____

>  <TORSDO>  (1) 
F 3

>  <grid_id>  (1) 
p38-prepared

>  <grid_path>  (1) 
/projects/mai/users/kmzp800_harry/pmx_colab/docking_jobs/p38/vina_docking/input_files/p38_vina.pdbqt

>  <grid_filename>  (1) 
p38_vina.pdbqt

>  <docking_score>  (1) 
-7.734

>  <compound_name>  (1) 
lig_p38a_2h

>  <index_string>  (1) 
13:0:0

>  <s_m_Source_Path>  (1) 
/projects/mai/users/kmzp800_harry/pmx_colab/docking_jobs/p38

>  <s_m_Source_File>  (1) 
p38_confs_vina_naive.sdf

>  <i_m_Source_File_Index>  (1) 
15

$$$$
