19:0:0
     RDKit          3D

 50 54  0  0  1  0  0  0  0  0999 V2000
    5.5900   -0.5740   16.2440 C   0  0  0  0  0  0  0  0  0  0  0  0
    4.3310   -1.0650   16.1140 N   0  0  0  0  0  0  0  0  0  0  0  0
    3.8000   -0.3170   15.1320 C   0  0  0  0  0  0  0  0  0  0  0  0
    2.5120   -0.4140   14.6110 C   0  0  0  0  0  0  0  0  0  0  0  0
    1.6000   -1.4020   15.1110 N   0  0  0  0  0  0  0  0  0  0  0  0
    2.1680    0.4430   13.6040 N   0  0  0  0  0  0  0  0  0  0  0  0
    3.0410    1.3790   13.1130 C   0  0  0  0  0  0  0  0  0  0  0  0
    4.3360    1.4600   13.6610 C   0  0  0  0  0  0  0  0  0  0  0  0
    4.6510    0.5970   14.6550 N   0  0  0  0  0  0  0  0  0  0  0  0
    5.7960    0.4620   15.3360 C   0  0  0  0  0  0  0  0  0  0  0  0
    2.6210    2.2820   12.0200 C   0  0  0  0  0  0  0  0  0  0  0  0
    3.5490    2.6890   11.0490 C   0  0  0  0  0  0  0  0  0  0  0  0
    3.1670    3.5470   10.0140 C   0  0  0  0  0  0  0  0  0  0  0  0
    1.8470    4.0000    9.9380 C   0  0  0  0  0  0  0  0  0  0  0  0
    0.9090    3.5960   10.8990 C   0  0  0  0  0  0  0  0  0  0  0  0
    1.2980    2.7470   11.9380 C   0  0  0  0  0  0  0  0  0  0  0  0
   -0.4080    4.0650   10.8290 O   0  0  0  0  0  0  0  0  0  0  0  0
   -0.9590    4.6580    9.6480 C   0  0  0  0  0  0  0  0  0  0  0  0
    0.0920    5.3280    8.8140 C   0  0  0  0  0  0  0  0  0  0  0  0
   -0.2360    6.2110    7.9800 O   0  0  0  0  0  0  0  0  0  0  0  0
    1.4550    4.9130    8.9150 N   0  0  0  0  0  0  0  0  0  0  0  0
    0.2210   -1.5650   14.7560 C   0  0  0  0  0  0  0  0  0  0  0  0
   -0.4290   -2.7470   15.1210 C   0  0  0  0  0  0  0  0  0  0  0  0
   -1.7760   -2.9400   14.8050 C   0  0  0  0  0  0  0  0  0  0  0  0
   -2.4950   -1.9470   14.1210 C   0  0  0  0  0  0  0  0  0  0  0  0
   -1.8520   -0.7550   13.7550 C   0  0  0  0  0  0  0  0  0  0  0  0
   -0.4970   -0.5720   14.0760 C   0  0  0  0  0  0  0  0  0  0  0  0
   -3.8440   -2.1240   13.7960 O   0  0  0  0  0  0  0  0  0  0  0  0
   -4.2940   -3.1220   12.8900 C   0  0  0  0  0  0  0  0  0  0  0  0
   -2.5780    0.2320   13.0790 O   0  0  0  0  0  0  0  0  0  0  0  0
   -1.9740    1.1550   12.1830 C   0  0  0  0  0  0  0  0  0  0  0  0
    6.3384   -0.9409   16.9618 H   0  0  0  0  0  0  0  0  0  0  0  0
    1.9776   -2.0672   15.8008 H   0  0  0  0  0  0  0  0  0  0  0  0
    5.0649    2.1978   13.2945 H   0  0  0  0  0  0  0  0  0  0  0  0
    6.7154    1.0514   15.2046 H   0  0  0  0  0  0  0  0  0  0  0  0
    4.5871    2.3292   11.1031 H   0  0  0  0  0  0  0  0  0  0  0  0
    3.9033    3.8649    9.2612 H   0  0  0  0  0  0  0  0  0  0  0  0
    0.5633    2.4405   12.6971 H   0  0  0  0  0  0  0  0  0  0  0  0
   -1.4414    3.8724    9.0479 H   0  0  0  0  0  0  0  0  0  0  0  0
   -1.6855    5.4232    9.9588 H   0  0  0  0  0  0  0  0  0  0  0  0
    2.1541    5.2728    8.2496 H   0  0  0  0  0  0  0  0  0  0  0  0
    0.1235   -3.5304   15.6605 H   0  0  0  0  0  0  0  0  0  0  0  0
   -2.2765   -3.8760   15.0940 H   0  0  0  0  0  0  0  0  0  0  0  0
    0.0072    0.3629   13.7900 H   0  0  0  0  0  0  0  0  0  0  0  0
   -4.6819   -3.9823   13.4552 H   0  0  0  0  0  0  0  0  0  0  0  0
   -5.0930   -2.7089   12.2567 H   0  0  0  0  0  0  0  0  0  0  0  0
   -3.4555   -3.4473   12.2567 H   0  0  0  0  0  0  0  0  0  0  0  0
   -1.4601    1.9403   12.7568 H   0  0  0  0  0  0  0  0  0  0  0  0
   -1.2456    0.6278   11.5493 H   0  0  0  0  0  0  0  0  0  0  0  0
   -2.7487    1.6114   11.5493 H   0  0  0  0  0  0  0  0  0  0  0  0
  1  2  1  0
  1 10  2  0
  2  3  2  0
  3  4  1  0
  3  9  1  0
  4  5  1  0
  4  6  2  0
  5 22  1  0
  6  7  1  0
  7  8  2  0
  7 11  1  0
  8  9  1  0
  9 10  1  0
 11 12  2  0
 11 16  1  0
 12 13  1  0
 13 14  2  0
 14 15  1  0
 14 21  1  0
 15 16  2  0
 15 17  1  0
 17 18  1  0
 18 19  1  0
 19 21  1  0
 19 20  2  0
 22 23  2  0
 22 27  1  0
 23 24  1  0
 24 25  2  0
 25 26  1  0
 25 28  1  0
 26 27  2  0
 26 30  1  0
 28 29  1  0
 30 31  1  0
  1 32  1  0
  5 33  1  0
  8 34  1  0
 10 35  1  0
 12 36  1  0
 13 37  1  0
 16 38  1  0
 18 39  1  0
 18 40  1  0
 21 41  1  0
 23 42  1  0
 24 43  1  0
 27 44  1  0
 29 45  1  0
 29 46  1  0
 29 47  1  0
 31 48  1  0
 31 49  1  0
 31 50  1  0
M  END
>  <s_m_entry_id>  (1) 
20

>  <MODEL>  (1) 
1

>  <REMARK>  (1) 
 VINA RESULT:    -9.692      0.000      0.000
 INTER + INTRA:         -12.414
 INTER:                 -11.958
 INTRA:                  -0.456
 UNBOUND:                -0.456
  Name = /scratch/kmzp800/tmpyleo17q8/tmpujwvlhjz.pdb
  6 active torsions:
  status: ('A' for Active; 'I' for Inactive)
    1  A    between atoms: N2_5  and  C4_6
    2  A    between atoms: C7_9  and  O1_10
    3  A    between atoms: O1_10  and  C8_11
    4  A    between atoms: C9_12  and  O2_13
    5  A    between atoms: O2_13  and  C10_14
    6  A    between atoms: C12_17  and  C13_18
                            x       y       z     vdW  Elec       q    Type
                         _______ _______ _______ _____ _____    ______ ____

>  <TORSDO>  (1) 
F 4

>  <grid_id>  (1) 
syk-prepared

>  <grid_path>  (1) 
syk_vina.pdbqt

>  <grid_filename>  (1) 
syk_vina.pdbqt

>  <docking_score>  (1) 
-9.692

>  <compound_name>  (1) 
CHEMBL3265025

>  <index_string>  (1) 
19:0:0

>  <s_m_Source_Path>  (1) 
/projects/mai/users/kmzp800_harry/pmx_colab/docking_jobs/syk/vina_prep/output

>  <s_m_Source_File>  (1) 
ptp1b_docked_conformers.sdf

>  <i_m_Source_File_Index>  (1) 
20

$$$$
