17:0:0
     RDKit          3D

 65 70  0  0  1  0  0  0  0  0999 V2000
   -0.6099    6.3967   11.1846 C   0  0  0  0  0  0  0  0  0  0  0  0
   -1.5125    5.4325   10.6600 O   0  0  0  0  0  0  0  0  0  0  0  0
   -1.5579    4.1877   11.2539 C   0  0  0  0  0  0  0  0  0  0  0  0
   -0.6935    3.7903   12.3026 C   0  0  0  0  0  0  0  0  0  0  0  0
   -0.7989    2.5095   12.8715 C   0  0  0  0  0  0  0  0  0  0  0  0
   -1.7597    1.5874   12.3977 C   0  0  0  0  0  0  0  0  0  0  0  0
   -1.9349    0.2971   12.9321 N   0  0  0  0  0  0  0  0  0  0  0  0
   -1.0803   -0.4782   13.7320 C   0  0  0  0  0  0  0  0  0  0  0  0
    0.1785   -0.1707   13.7997 N   0  0  0  0  0  0  0  0  0  0  0  0
    1.0432   -0.8958   14.5859 C   0  0  0  0  0  0  0  0  0  0  0  0
    0.6109   -1.9810   15.3160 C   0  0  0  0  0  0  0  0  0  0  0  0
   -0.7020   -2.3239   15.2267 N   0  0  0  0  0  0  0  0  0  0  0  0
   -1.4304   -3.3368   15.8175 C   0  0  0  0  0  0  0  0  0  0  0  0
   -2.7203   -3.1971   15.3866 C   0  0  0  0  0  0  0  0  0  0  0  0
   -2.8394   -2.1174   14.5193 N   0  0  0  0  0  0  0  0  0  0  0  0
   -1.6153   -1.5939   14.4309 C   0  0  0  0  0  0  0  0  0  0  0  0
    2.4457   -0.3972   14.5905 C   0  0  0  0  0  0  0  0  0  0  0  0
    3.4302   -0.9151   15.4653 C   0  0  0  0  0  0  0  0  0  0  0  0
    4.7429   -0.3960   15.4819 C   0  0  0  0  0  0  0  0  0  0  0  0
    5.1066    0.6531   14.6178 C   0  0  0  0  0  0  0  0  0  0  0  0
    4.1416    1.2108   13.7571 C   0  0  0  0  0  0  0  0  0  0  0  0
    2.8369    0.6692   13.7417 C   0  0  0  0  0  0  0  0  0  0  0  0
    4.4523    2.4574   12.9823 C   0  0  0  0  0  0  0  0  0  0  0  0
    5.3537    3.2077   13.3550 O   0  0  0  0  0  0  0  0  0  0  0  0
    3.7314    2.6288   11.8582 N   0  0  0  0  0  0  0  0  0  0  0  0
    3.4984    3.8341   11.1479 C   0  0  0  0  0  0  0  0  0  0  0  0
    2.8843    3.7599    9.8813 C   0  0  0  0  0  0  0  0  0  0  0  0
    2.5549    4.9350    9.1766 C   0  0  0  0  0  0  0  0  0  0  0  0
    2.8282    6.2104    9.7167 C   0  0  0  0  0  0  0  0  0  0  0  0
    3.4300    6.2657   10.9888 C   0  0  0  0  0  0  0  0  0  0  0  0
    3.7634    5.1048   11.7004 C   0  0  0  0  0  0  0  0  0  0  0  0
    2.4785    7.4311    8.9850 C   0  0  0  0  0  0  0  0  0  0  0  0
    1.7849    7.6045    7.8190 C   0  0  0  0  0  0  0  0  0  0  0  0
    1.7848    9.0127    7.6159 C   0  0  0  0  0  0  0  0  0  0  0  0
    2.4048    9.6680    8.5815 N   0  0  0  0  0  0  0  0  0  0  0  0
    2.8274    8.6971    9.4174 N   0  0  0  0  0  0  0  0  0  0  0  0
   -2.6282    1.9913   11.3644 C   0  0  0  0  0  0  0  0  0  0  0  0
   -2.5387    3.2826   10.7873 C   0  0  0  0  0  0  0  0  0  0  0  0
   -3.3696    3.7182    9.7752 O   0  0  0  0  0  0  0  0  0  0  0  0
   -4.5641    2.9916    9.5214 C   0  0  0  0  0  0  0  0  0  0  0  0
   -0.6871    7.3170   10.6063 H   0  0  0  0  0  0  0  0  0  0  0  0
   -0.8424    6.6359   12.2233 H   0  0  0  0  0  0  0  0  0  0  0  0
    0.4220    6.0547   11.1196 H   0  0  0  0  0  0  0  0  0  0  0  0
    0.0581    4.4554   12.7003 H   0  0  0  0  0  0  0  0  0  0  0  0
   -0.1393    2.2716   13.6907 H   0  0  0  0  0  0  0  0  0  0  0  0
   -2.7685   -0.1986   12.6523 H   0  0  0  0  0  0  0  0  0  0  0  0
    1.2305   -2.5912   15.9644 H   0  0  0  0  0  0  0  0  0  0  0  0
   -0.9583   -4.0317   16.4984 H   0  0  0  0  0  0  0  0  0  0  0  0
   -3.5832   -3.7955   15.6420 H   0  0  0  0  0  0  0  0  0  0  0  0
    3.1917   -1.7145   16.1492 H   0  0  0  0  0  0  0  0  0  0  0  0
    5.4766   -0.8054   16.1617 H   0  0  0  0  0  0  0  0  0  0  0  0
    6.1089    1.0573   14.6595 H   0  0  0  0  0  0  0  0  0  0  0  0
    2.1028    1.1266   13.0963 H   0  0  0  0  0  0  0  0  0  0  0  0
    3.1753    1.8398   11.5683 H   0  0  0  0  0  0  0  0  0  0  0  0
    2.6431    2.8038    9.4444 H   0  0  0  0  0  0  0  0  0  0  0  0
    2.0725    4.8462    8.2177 H   0  0  0  0  0  0  0  0  0  0  0  0
    3.6296    7.2040   11.4620 H   0  0  0  0  0  0  0  0  0  0  0  0
    4.1912    5.2230   12.6844 H   0  0  0  0  0  0  0  0  0  0  0  0
    1.3376    6.8435    7.2012 H   0  0  0  0  0  0  0  0  0  0  0  0
    1.3441    9.5754    6.8065 H   0  0  0  0  0  0  0  0  0  0  0  0
    3.2983    8.9259   10.3035 H   0  0  0  0  0  0  0  0  0  0  0  0
   -3.3566    1.2803   11.0065 H   0  0  0  0  0  0  0  0  0  0  0  0
   -5.1688    3.5429    8.8013 H   0  0  0  0  0  0  0  0  0  0  0  0
   -4.3692    2.0078    9.0950 H   0  0  0  0  0  0  0  0  0  0  0  0
   -5.1588    2.8763   10.4284 H   0  0  0  0  0  0  0  0  0  0  0  0
  1  2  1  0
  1 41  1  0
  1 42  1  0
  1 43  1  0
  2  3  1  0
  3  4  2  0
  3 38  1  0
  4  5  1  0
  4 44  1  0
  5  6  2  0
  5 45  1  0
  6  7  1  0
  6 37  1  0
  7  8  1  0
  7 46  1  0
  8  9  2  0
  8 16  1  0
  9 10  1  0
 10 11  2  0
 10 17  1  0
 11 12  1  0
 11 47  1  0
 12 13  1  0
 12 16  1  0
 13 14  2  0
 13 48  1  0
 14 15  1  0
 14 49  1  0
 15 16  2  0
 17 18  2  0
 17 22  1  0
 18 19  1  0
 18 50  1  0
 19 20  2  0
 19 51  1  0
 20 21  1  0
 20 52  1  0
 21 22  2  0
 21 23  1  0
 22 53  1  0
 23 24  2  0
 23 25  1  0
 25 26  1  0
 25 54  1  0
 26 27  2  0
 26 31  1  0
 27 28  1  0
 27 55  1  0
 28 29  2  0
 28 56  1  0
 29 30  1  0
 29 32  1  0
 30 31  2  0
 30 57  1  0
 31 58  1  0
 32 36  1  0
 32 33  2  0
 33 34  1  0
 33 59  1  0
 34 60  1  0
 34 35  2  0
 35 36  1  0
 36 61  1  0
 37 38  2  0
 37 62  1  0
 38 39  1  0
 39 40  1  0
 40 63  1  0
 40 64  1  0
 40 65  1  0
M  END
>  <s_m_entry_id>  (1) 
697

>  <IC50[nM]>  (1) 
11.7

>  <s_m_Source_Path>  (1) 
/projects/mai/users/kmzp800_harry/pmx_colab/docking_jobs/syk

>  <s_m_Source_File>  (1) 
tnks2_lig.sdf

>  <i_m_Source_File_Index>  (1) 
18

>  <s_m_job_name>  (1) 
glide-dock_SP_tnks2_no_const

>  <r_i_docking_score>  (1) 
-7.09579978660105

>  <r_i_glide_gscore>  (1) 
-7.09579978660105

>  <r_i_glide_emodel>  (1) 
-79.6328043946385

>  <index_string>  (1) 
17:0:0

$$$$
