18:0:0
     RDKit          3D

 49 52  0  0  1  0  0  0  0  0999 V2000
   32.7402   34.7492   14.3779 F   0  0  0  0  0  0  0  0  0  0  0  0
   33.4621   34.9342   15.5082 C   0  0  0  0  0  0  0  0  0  0  0  0
   34.8615   34.9241   15.4891 C   0  0  0  0  0  0  0  0  0  0  0  0
   35.6070   35.1493   16.6538 C   0  0  0  0  0  0  0  0  0  0  0  0
   36.9577   35.1940   16.5773 F   0  0  0  0  0  0  0  0  0  0  0  0
   34.9493   35.2299   17.8971 C   0  0  0  0  0  0  0  0  0  0  0  0
   33.5377   35.2301   17.9234 C   0  0  0  0  0  0  0  0  0  0  0  0
   32.8157   35.1493   16.7235 C   0  0  0  0  0  0  0  0  0  0  0  0
   35.7026   35.2274   19.0424 O   0  0  0  0  0  0  0  0  0  0  0  0
   35.1810   35.8240   20.1509 C   0  0  0  0  0  0  0  0  0  0  0  0
   35.2703   37.1589   20.2653 C   0  0  0  0  0  0  0  0  0  0  0  0
   34.5524   34.9944   21.1815 C   0  0  0  0  0  0  0  0  0  0  0  0
   34.3185   33.8041   20.9789 O   0  0  0  0  0  0  0  0  0  0  0  0
   34.2231   35.6189   22.3485 N   0  0  0  0  0  0  0  0  0  0  0  0
   33.6787   34.8232   23.4606 C   0  0  0  0  0  0  0  0  0  0  0  0
   34.3117   37.0401   22.5284 C   0  0  0  0  0  0  0  0  0  0  0  0
   34.8137   37.8288   21.4738 C   0  0  0  0  0  0  0  0  0  0  0  0
   33.9187   37.6397   23.6699 N   0  0  0  0  0  0  0  0  0  0  0  0
   33.9959   38.9660   23.7590 C   0  0  0  0  0  0  0  0  0  0  0  0
   34.4531   39.7945   22.8191 N   0  0  0  0  0  0  0  0  0  0  0  0
   34.8585   39.2235   21.6674 C   0  0  0  0  0  0  0  0  0  0  0  0
   33.5504   39.5493   24.9288 N   0  0  0  0  0  0  0  0  0  0  0  0
   32.9857   38.8215   26.0606 C   0  0  0  0  0  0  0  0  0  0  0  0
   31.5751   38.2695   25.7561 C   0  0  0  0  0  0  0  0  0  0  0  0
   31.0404   37.4674   26.9510 C   0  0  0  0  0  0  0  0  0  0  0  0
   30.9955   38.3389   28.2146 C   0  0  0  0  0  0  0  0  0  0  0  0
   30.5569   37.5580   29.3054 O   0  0  0  0  0  0  0  0  0  0  0  0
   32.3778   38.9397   28.5251 C   0  0  0  0  0  0  0  0  0  0  0  0
   32.9378   39.7119   27.3166 C   0  0  0  0  0  0  0  0  0  0  0  0
   33.6496   37.9809   26.2711 H   0  0  0  0  0  0  0  0  0  0  0  0
   30.2839   39.1489   28.0661 H   0  0  0  0  0  0  0  0  0  0  0  0
   35.3547   34.7489   14.5591 H   0  0  0  0  0  0  0  0  0  0  0  0
   32.9813   35.2891   18.8468 H   0  0  0  0  0  0  0  0  0  0  0  0
   31.7394   35.1548   16.7583 H   0  0  0  0  0  0  0  0  0  0  0  0
   35.7373   37.7541   19.4934 H   0  0  0  0  0  0  0  0  0  0  0  0
   34.1002   35.1457   24.4134 H   0  0  0  0  0  0  0  0  0  0  0  0
   32.5969   34.9495   23.5129 H   0  0  0  0  0  0  0  0  0  0  0  0
   33.8883   33.7544   23.3873 H   0  0  0  0  0  0  0  0  0  0  0  0
   35.2345   39.8836   20.9011 H   0  0  0  0  0  0  0  0  0  0  0  0
   33.6916   40.5469   25.0383 H   0  0  0  0  0  0  0  0  0  0  0  0
   30.8926   39.0895   25.5256 H   0  0  0  0  0  0  0  0  0  0  0  0
   31.5859   37.6247   24.8779 H   0  0  0  0  0  0  0  0  0  0  0  0
   31.6815   36.6008   27.1198 H   0  0  0  0  0  0  0  0  0  0  0  0
   30.0514   37.0727   26.7239 H   0  0  0  0  0  0  0  0  0  0  0  0
   29.6441   37.3388   29.1737 H   0  0  0  0  0  0  0  0  0  0  0  0
   33.0722   38.1440   28.7986 H   0  0  0  0  0  0  0  0  0  0  0  0
   32.3105   39.6039   29.3877 H   0  0  0  0  0  0  0  0  0  0  0  0
   33.9358   40.0844   27.5515 H   0  0  0  0  0  0  0  0  0  0  0  0
   32.3187   40.5898   27.1264 H   0  0  0  0  0  0  0  0  0  0  0  0
  1  2  1  0
  2  8  2  0
  2  3  1  0
  3  4  2  0
  3 32  1  0
  4  5  1  0
  4  6  1  0
  6  7  2  0
  6  9  1  0
  7  8  1  0
  7 33  1  0
  8 34  1  0
  9 10  1  0
 10 11  2  0
 10 12  1  0
 11 17  1  0
 11 35  1  0
 12 13  2  0
 12 14  1  0
 14 15  1  0
 14 16  1  0
 15 36  1  0
 15 37  1  0
 15 38  1  0
 16 17  2  0
 16 18  1  0
 17 21  1  0
 18 19  2  0
 19 20  1  0
 19 22  1  0
 20 21  2  0
 21 39  1  0
 22 23  1  0
 22 40  1  0
 23 30  1  0
 23 29  1  0
 23 24  1  0
 24 25  1  0
 24 41  1  0
 24 42  1  0
 25 26  1  0
 25 43  1  0
 25 44  1  0
 26 31  1  0
 26 27  1  0
 26 28  1  0
 27 45  1  0
 28 29  1  0
 28 46  1  0
 28 47  1  0
 29 48  1  0
 29 49  1  0
M  END
>  <s_m_entry_id>  (1) 
271

>  <i_f3d_flags>  (1) 
0

>  <r_lp_tautomer_probability>  (1) 
1

>  <r_epik_Ionization_Penalty>  (1) 
  0.0000

>  <r_epik_State_Penalty>  (1) 
  0.0000

>  <i_epik_Tot_Q>  (1) 
0

>  <s_m_job_name>  (1) 
glide-dock_SP_p38_core_cons_top_1

>  <r_i_docking_score>  (1) 
-6.58923314064335

>  <r_i_glide_gscore>  (1) 
-6.58923314064335

>  <r_i_glide_emodel>  (1) 
-38.0193615035028

>  <index_string>  (1) 
18:0:0

$$$$
