0:0:0
     RDKit          3D

 56 61  0  0  1  0  0  0  0  0999 V2000
    5.8210   -0.4610   16.3500 C   0  0  0  0  0  0  0  0  0  0  0  0
    4.5760   -0.9950   16.2640 N   0  0  0  0  0  0  0  0  0  0  0  0
    4.0040   -0.3010   15.2650 C   0  0  0  0  0  0  0  0  0  0  0  0
    2.7100   -0.4580   14.7750 C   0  0  0  0  0  0  0  0  0  0  0  0
    1.8390   -1.4560   15.3260 N   0  0  0  0  0  0  0  0  0  0  0  0
    2.3200    0.3470   13.7420 N   0  0  0  0  0  0  0  0  0  0  0  0
    3.1530    1.2910   13.1980 C   0  0  0  0  0  0  0  0  0  0  0  0
    4.4540    1.4330   13.7190 C   0  0  0  0  0  0  0  0  0  0  0  0
    4.8150    0.6190   14.7380 N   0  0  0  0  0  0  0  0  0  0  0  0
    5.9760    0.5460   15.4010 C   0  0  0  0  0  0  0  0  0  0  0  0
    2.6870    2.1350   12.0790 C   0  0  0  0  0  0  0  0  0  0  0  0
    3.6150    2.6020   11.1130 C   0  0  0  0  0  0  0  0  0  0  0  0
    3.2020    3.4080   10.0370 C   0  0  0  0  0  0  0  0  0  0  0  0
    1.8510    3.7250    9.9630 C   0  0  0  0  0  0  0  0  0  0  0  0
    1.1390    4.4760    9.0570 C   0  0  0  0  0  0  0  0  0  0  0  0
   -0.1540    4.4560    9.4670 N   0  0  0  0  0  0  0  0  0  0  0  0
   -0.2750    3.7330   10.5770 N   0  0  0  0  0  0  0  0  0  0  0  0
    0.9500    3.2840   10.8830 C   0  0  0  0  0  0  0  0  0  0  0  0
    1.3230    2.4860   11.9600 C   0  0  0  0  0  0  0  0  0  0  0  0
    0.4530   -1.6580   15.0230 C   0  0  0  0  0  0  0  0  0  0  0  0
   -0.1560   -2.8450   15.4280 C   0  0  0  0  0  0  0  0  0  0  0  0
   -1.5070   -3.0700   15.1690 C   0  0  0  0  0  0  0  0  0  0  0  0
   -2.2870   -2.1090   14.5040 C   0  0  0  0  0  0  0  0  0  0  0  0
   -1.6740   -0.9030   14.0850 C   0  0  0  0  0  0  0  0  0  0  0  0
   -0.3100   -0.6920   14.3550 C   0  0  0  0  0  0  0  0  0  0  0  0
   -3.6850   -2.3830   14.2730 N   0  0  0  0  0  0  0  0  0  0  0  0
   -4.6930   -2.2080   15.3190 C   0  0  0  0  0  0  0  0  0  0  0  0
   -5.7450   -3.3110   15.2020 C   0  0  0  0  0  0  0  0  0  0  0  0
   -6.2700   -3.3320   13.8980 O   0  0  0  0  0  0  0  0  0  0  0  0
   -5.2480   -3.8210   13.0650 C   0  0  0  0  0  0  0  0  0  0  0  0
   -4.1380   -2.7780   12.9370 C   0  0  0  0  0  0  0  0  0  0  0  0
   -2.4130    0.0630   13.3920 O   0  0  0  0  0  0  0  0  0  0  0  0
   -1.8740    0.8370   12.3300 C   0  0  0  0  0  0  0  0  0  0  0  0
    6.5946   -0.7776   17.0651 H   0  0  0  0  0  0  0  0  0  0  0  0
    2.2557   -2.0980   16.0152 H   0  0  0  0  0  0  0  0  0  0  0  0
    5.1520    2.1793   13.3118 H   0  0  0  0  0  0  0  0  0  0  0  0
    6.8731    1.1592   15.2301 H   0  0  0  0  0  0  0  0  0  0  0  0
    4.6764    2.3289   11.2072 H   0  0  0  0  0  0  0  0  0  0  0  0
    3.9182    3.7721    9.2857 H   0  0  0  0  0  0  0  0  0  0  0  0
    1.5399    4.9923    8.1723 H   0  0  0  0  0  0  0  0  0  0  0  0
   -1.1434    3.5529   11.1007 H   0  0  0  0  0  0  0  0  0  0  0  0
    0.5810    2.1397   12.6945 H   0  0  0  0  0  0  0  0  0  0  0  0
    0.4337   -3.6092   15.9555 H   0  0  0  0  0  0  0  0  0  0  0  0
   -1.9698   -4.0148   15.4903 H   0  0  0  0  0  0  0  0  0  0  0  0
    0.1655    0.2473   14.0362 H   0  0  0  0  0  0  0  0  0  0  0  0
   -4.2108   -2.2643   16.3061 H   0  0  0  0  0  0  0  0  0  0  0  0
   -5.1760   -1.2266   15.2025 H   0  0  0  0  0  0  0  0  0  0  0  0
   -5.2811   -4.2832   15.4246 H   0  0  0  0  0  0  0  0  0  0  0  0
   -6.5573   -3.1155   15.9175 H   0  0  0  0  0  0  0  0  0  0  0  0
   -4.8338   -4.7432   13.4987 H   0  0  0  0  0  0  0  0  0  0  0  0
   -5.6630   -4.0327   12.0685 H   0  0  0  0  0  0  0  0  0  0  0  0
   -4.5229   -1.8959   12.4043 H   0  0  0  0  0  0  0  0  0  0  0  0
   -3.2949   -3.2058   12.3747 H   0  0  0  0  0  0  0  0  0  0  0  0
   -1.2917    1.6731   12.7445 H   0  0  0  0  0  0  0  0  0  0  0  0
   -1.2194    0.2054   11.7115 H   0  0  0  0  0  0  0  0  0  0  0  0
   -2.6935    1.2319   11.7115 H   0  0  0  0  0  0  0  0  0  0  0  0
  1  2  1  0
  1 10  2  0
  2  3  2  0
  3  4  1  0
  3  9  1  0
  4  5  1  0
  4  6  2  0
  5 20  1  0
  6  7  1  0
  7  8  2  0
  7 11  1  0
  8  9  1  0
  9 10  1  0
 11 12  2  0
 11 19  1  0
 12 13  1  0
 13 14  2  0
 14 18  1  0
 14 15  1  0
 15 16  2  0
 16 17  1  0
 17 18  1  0
 18 19  2  0
 20 21  2  0
 20 25  1  0
 21 22  1  0
 22 23  2  0
 23 24  1  0
 23 26  1  0
 24 25  2  0
 24 32  1  0
 26 27  1  0
 26 31  1  0
 27 28  1  0
 28 29  1  0
 29 30  1  0
 30 31  1  0
 32 33  1  0
  1 34  1  0
  5 35  1  0
  8 36  1  0
 10 37  1  0
 12 38  1  0
 13 39  1  0
 15 40  1  0
 17 41  1  0
 19 42  1  0
 21 43  1  0
 22 44  1  0
 25 45  1  0
 27 46  1  0
 27 47  1  0
 28 48  1  0
 28 49  1  0
 30 50  1  0
 30 51  1  0
 31 52  1  0
 31 53  1  0
 33 54  1  0
 33 55  1  0
 33 56  1  0
M  END
>  <s_m_entry_id>  (1) 
1

>  <MODEL>  (1) 
1

>  <REMARK>  (1) 
 VINA RESULT:    -9.807      0.000      0.000
 INTER + INTRA:         -12.658
 INTER:                 -12.101
 INTRA:                  -0.557
 UNBOUND:                -0.557
  Name = /scratch/kmzp800/tmpda0cc7b8/tmpfbb5zi_j.pdb
  5 active torsions:
  status: ('A' for Active; 'I' for Inactive)
    1  A    between atoms: N2_5  and  C4_6
    2  A    between atoms: C7_9  and  N3_10
    3  A    between atoms: C12_16  and  O2_17
    4  A    between atoms: O2_17  and  C13_18
    5  A    between atoms: C15_21  and  C16_22
                            x       y       z     vdW  Elec       q    Type
                         _______ _______ _______ _____ _____    ______ ____

>  <TORSDO>  (1) 
F 4

>  <grid_id>  (1) 
syk-prepared

>  <grid_path>  (1) 
syk_vina.pdbqt

>  <grid_filename>  (1) 
syk_vina.pdbqt

>  <docking_score>  (1) 
-9.807

>  <compound_name>  (1) 
CHEMBL3265037

>  <index_string>  (1) 
0:0:0

>  <s_m_Source_Path>  (1) 
/projects/mai/users/kmzp800_harry/pmx_colab/docking_jobs/syk/vina_prep/output

>  <s_m_Source_File>  (1) 
ptp1b_docked_conformers.sdf

>  <i_m_Source_File_Index>  (1) 
1

$$$$
