3:0:0
     RDKit          3D

 48 51  0  0  1  0  0  0  0  0999 V2000
   36.5144   36.0939   20.2998 F   0  0  0  0  0  0  0  0  0  0  0  0
   36.5151   35.9495   18.9563 C   0  0  0  0  0  0  0  0  0  0  0  0
   37.7331   36.1285   18.2797 C   0  0  0  0  0  0  0  0  0  0  0  0
   37.7935   35.9503   16.8877 C   0  0  0  0  0  0  0  0  0  0  0  0
   38.9520   36.1648   16.2402 F   0  0  0  0  0  0  0  0  0  0  0  0
   36.6502   35.5775   16.1641 C   0  0  0  0  0  0  0  0  0  0  0  0
   35.4291   35.4017   16.8368 C   0  0  0  0  0  0  0  0  0  0  0  0
   35.3433   35.5926   18.2326 C   0  0  0  0  0  0  0  0  0  0  0  0
   33.9696   35.4180   18.8765 C   0  0  0  0  0  0  0  0  0  0  0  0
   33.8124   36.0273   20.2603 C   0  0  0  0  0  0  0  0  0  0  0  0
   33.8496   37.3635   20.4174 C   0  0  0  0  0  0  0  0  0  0  0  0
   33.6955   35.1275   21.4204 C   0  0  0  0  0  0  0  0  0  0  0  0
   33.7221   33.9029   21.2927 O   0  0  0  0  0  0  0  0  0  0  0  0
   33.5836   35.7179   22.6474 N   0  0  0  0  0  0  0  0  0  0  0  0
   33.4036   34.8806   23.8467 C   0  0  0  0  0  0  0  0  0  0  0  0
   33.6689   37.1346   22.8529 C   0  0  0  0  0  0  0  0  0  0  0  0
   33.8158   37.9737   21.7326 C   0  0  0  0  0  0  0  0  0  0  0  0
   33.6257   37.6824   24.0854 N   0  0  0  0  0  0  0  0  0  0  0  0
   33.7628   39.0034   24.1962 C   0  0  0  0  0  0  0  0  0  0  0  0
   33.9667   39.8681   23.2046 N   0  0  0  0  0  0  0  0  0  0  0  0
   33.9777   39.3541   21.9591 C   0  0  0  0  0  0  0  0  0  0  0  0
   33.6574   39.5492   25.4560 N   0  0  0  0  0  0  0  0  0  0  0  0
   33.0840   38.8589   26.6060 C   0  0  0  0  0  0  0  0  0  0  0  0
   33.3650   39.6225   27.9069 C   0  0  0  0  0  0  0  0  0  0  0  0
   32.7190   38.8957   29.0965 C   0  0  0  0  0  0  0  0  0  0  0  0
   31.3181   38.7498   28.8814 O   0  0  0  0  0  0  0  0  0  0  0  0
   30.9970   37.9805   27.7272 C   0  0  0  0  0  0  0  0  0  0  0  0
   31.5641   38.6548   26.4680 C   0  0  0  0  0  0  0  0  0  0  0  0
   38.6235   36.4066   18.8260 H   0  0  0  0  0  0  0  0  0  0  0  0
   36.7085   35.4507   15.0945 H   0  0  0  0  0  0  0  0  0  0  0  0
   34.5460   35.1361   16.2723 H   0  0  0  0  0  0  0  0  0  0  0  0
   33.2292   35.8946   18.2343 H   0  0  0  0  0  0  0  0  0  0  0  0
   33.7075   34.3598   18.8662 H   0  0  0  0  0  0  0  0  0  0  0  0
   33.9602   38.0140   19.5625 H   0  0  0  0  0  0  0  0  0  0  0  0
   34.1443   35.1347   24.6070 H   0  0  0  0  0  0  0  0  0  0  0  0
   32.4134   35.0590   24.2719 H   0  0  0  0  0  0  0  0  0  0  0  0
   33.4924   33.8060   23.6781 H   0  0  0  0  0  0  0  0  0  0  0  0
   34.1276   40.0454   21.1423 H   0  0  0  0  0  0  0  0  0  0  0  0
   33.7386   40.5610   25.5079 H   0  0  0  0  0  0  0  0  0  0  0  0
   33.5626   37.8806   26.6828 H   0  0  0  0  0  0  0  0  0  0  0  0
   34.4401   39.7146   28.0677 H   0  0  0  0  0  0  0  0  0  0  0  0
   32.9676   40.6362   27.8434 H   0  0  0  0  0  0  0  0  0  0  0  0
   33.1747   37.9163   29.2474 H   0  0  0  0  0  0  0  0  0  0  0  0
   32.8745   39.4644   30.0134 H   0  0  0  0  0  0  0  0  0  0  0  0
   31.3870   36.9672   27.8350 H   0  0  0  0  0  0  0  0  0  0  0  0
   29.9120   37.8963   27.6537 H   0  0  0  0  0  0  0  0  0  0  0  0
   31.0702   39.6142   26.3174 H   0  0  0  0  0  0  0  0  0  0  0  0
   31.3314   38.0440   25.5959 H   0  0  0  0  0  0  0  0  0  0  0  0
  1  2  1  0
  2  8  2  0
  2  3  1  0
  3  4  2  0
  3 29  1  0
  4  5  1  0
  4  6  1  0
  6  7  2  0
  6 30  1  0
  7  8  1  0
  7 31  1  0
  8  9  1  0
  9 10  1  0
  9 32  1  0
  9 33  1  0
 10 11  2  0
 10 12  1  0
 11 17  1  0
 11 34  1  0
 12 13  2  0
 12 14  1  0
 14 15  1  0
 14 16  1  0
 15 35  1  0
 15 36  1  0
 15 37  1  0
 16 17  2  0
 16 18  1  0
 17 21  1  0
 18 19  2  0
 19 20  1  0
 19 22  1  0
 20 21  2  0
 21 38  1  0
 22 23  1  0
 22 39  1  0
 23 28  1  0
 23 24  1  0
 23 40  1  0
 24 25  1  0
 24 41  1  0
 24 42  1  0
 25 26  1  0
 25 43  1  0
 25 44  1  0
 26 27  1  0
 27 28  1  0
 27 45  1  0
 27 46  1  0
 28 47  1  0
 28 48  1  0
M  END
>  <s_m_entry_id>  (1) 
720

>  <i_f3d_flags>  (1) 
0

>  <r_lp_tautomer_probability>  (1) 
1

>  <r_epik_Ionization_Penalty>  (1) 
  0.0000

>  <r_epik_State_Penalty>  (1) 
  0.0000

>  <i_epik_Tot_Q>  (1) 
0

>  <s_m_job_name>  (1) 
glide-dock_SP_p38_all_ligs_no_cons_10_poses

>  <r_i_docking_score>  (1) 
-7.69128914265391

>  <r_i_glide_gscore>  (1) 
-7.69128914265391

>  <r_i_glide_emodel>  (1) 
-59.6907994617252

>  <index_string>  (1) 
3:0:0

$$$$
