28:0:0
     RDKit          3D

 62 66  0  0  1  0  0  0  0  0999 V2000
   -4.4514   -3.5388   14.5507 C   0  0  0  0  0  0  0  0  0  0  0  0
   -3.8658   -2.3203   14.1136 O   0  0  0  0  0  0  0  0  0  0  0  0
   -2.5345   -2.0985   14.4122 C   0  0  0  0  0  0  0  0  0  0  0  0
   -1.7248   -3.0022   15.1506 C   0  0  0  0  0  0  0  0  0  0  0  0
   -0.3739   -2.7059   15.4134 C   0  0  0  0  0  0  0  0  0  0  0  0
    0.2058   -1.5054   14.9496 C   0  0  0  0  0  0  0  0  0  0  0  0
    1.5490   -1.2700   15.2960 N   0  0  0  0  0  0  0  0  0  0  0  0
    2.5180   -0.4146   14.7354 C   0  0  0  0  0  0  0  0  0  0  0  0
    2.1964    0.3757   13.7455 N   0  0  0  0  0  0  0  0  0  0  0  0
    3.1227    1.2587   13.2252 C   0  0  0  0  0  0  0  0  0  0  0  0
    4.4254    1.2945   13.6763 C   0  0  0  0  0  0  0  0  0  0  0  0
    4.7677    0.4890   14.7152 N   0  0  0  0  0  0  0  0  0  0  0  0
    5.9123    0.3808   15.4795 C   0  0  0  0  0  0  0  0  0  0  0  0
    5.6058   -0.4988   16.4871 C   0  0  0  0  0  0  0  0  0  0  0  0
    4.3593   -1.0570   16.3206 N   0  0  0  0  0  0  0  0  0  0  0  0
    3.8282   -0.4093   15.2875 C   0  0  0  0  0  0  0  0  0  0  0  0
    2.6505    2.2510   12.2214 C   0  0  0  0  0  0  0  0  0  0  0  0
    3.5570    2.8021   11.2759 C   0  0  0  0  0  0  0  0  0  0  0  0
    3.1284    3.6932   10.2792 C   0  0  0  0  0  0  0  0  0  0  0  0
    1.7788    4.0648   10.2047 C   0  0  0  0  0  0  0  0  0  0  0  0
    0.8584    3.5744   11.1531 C   0  0  0  0  0  0  0  0  0  0  0  0
    1.3010    2.6901   12.1707 C   0  0  0  0  0  0  0  0  0  0  0  0
   -0.5954    3.8981   10.9861 C   0  0  0  0  0  0  0  0  0  0  0  0
   -1.1235    3.7374    9.8795 O   0  0  0  0  0  0  0  0  0  0  0  0
   -1.2169    4.3558   12.0932 N   0  0  0  0  0  0  0  0  0  0  0  0
   -2.5586    4.8221   12.2327 C   0  0  0  0  0  0  0  0  0  0  0  0
   -2.8718    5.5206   13.4160 C   0  0  0  0  0  0  0  0  0  0  0  0
   -4.1736    6.0074   13.6384 C   0  0  0  0  0  0  0  0  0  0  0  0
   -5.1736    5.8475   12.6586 C   0  0  0  0  0  0  0  0  0  0  0  0
   -4.8677    5.1452   11.4744 C   0  0  0  0  0  0  0  0  0  0  0  0
   -3.5787    4.6224   11.2680 C   0  0  0  0  0  0  0  0  0  0  0  0
   -6.5226    6.4637   12.8637 C   0  0  0  0  0  0  0  0  0  0  0  0
   -6.6572    7.5447   13.4265 O   0  0  0  0  0  0  0  0  0  0  0  0
   -7.5681    5.7539   12.4389 N   0  0  0  0  0  0  0  0  0  0  0  0
   -0.6070   -0.6048   14.2184 C   0  0  0  0  0  0  0  0  0  0  0  0
   -1.9695   -0.8905   13.9421 C   0  0  0  0  0  0  0  0  0  0  0  0
   -2.8033   -0.0423   13.2399 O   0  0  0  0  0  0  0  0  0  0  0  0
   -2.2202    1.0684   12.5753 C   0  0  0  0  0  0  0  0  0  0  0  0
   -5.4897   -3.5645   14.2292 H   0  0  0  0  0  0  0  0  0  0  0  0
   -3.9441   -4.4110   14.1331 H   0  0  0  0  0  0  0  0  0  0  0  0
   -4.4524   -3.6164   15.6384 H   0  0  0  0  0  0  0  0  0  0  0  0
   -2.1169   -3.9355   15.5312 H   0  0  0  0  0  0  0  0  0  0  0  0
    0.2177   -3.4090   15.9880 H   0  0  0  0  0  0  0  0  0  0  0  0
    1.9320   -1.8895   15.9993 H   0  0  0  0  0  0  0  0  0  0  0  0
    5.1746    1.9997   13.3387 H   0  0  0  0  0  0  0  0  0  0  0  0
    6.7720    1.0079   15.2794 H   0  0  0  0  0  0  0  0  0  0  0  0
    6.1262   -0.7546   17.3833 H   0  0  0  0  0  0  0  0  0  0  0  0
    4.5956    2.5025   11.2724 H   0  0  0  0  0  0  0  0  0  0  0  0
    3.8307    4.0809    9.5558 H   0  0  0  0  0  0  0  0  0  0  0  0
    1.4441    4.7278    9.4186 H   0  0  0  0  0  0  0  0  0  0  0  0
    0.5886    2.2964   12.8810 H   0  0  0  0  0  0  0  0  0  0  0  0
   -0.6204    4.4784   12.9004 H   0  0  0  0  0  0  0  0  0  0  0  0
   -2.1208    5.6664   14.1770 H   0  0  0  0  0  0  0  0  0  0  0  0
   -4.3912    6.5320   14.5597 H   0  0  0  0  0  0  0  0  0  0  0  0
   -5.6120    5.0165   10.7044 H   0  0  0  0  0  0  0  0  0  0  0  0
   -3.4004    4.0875   10.3475 H   0  0  0  0  0  0  0  0  0  0  0  0
   -8.4945    6.1209   12.5691 H   0  0  0  0  0  0  0  0  0  0  0  0
   -7.4260    4.8641   11.9927 H   0  0  0  0  0  0  0  0  0  0  0  0
   -0.1980    0.3404   13.9024 H   0  0  0  0  0  0  0  0  0  0  0  0
   -2.9820    1.5632   11.9699 H   0  0  0  0  0  0  0  0  0  0  0  0
   -1.8308    1.7964   13.2910 H   0  0  0  0  0  0  0  0  0  0  0  0
   -1.4187    0.7607   11.9033 H   0  0  0  0  0  0  0  0  0  0  0  0
  1  2  1  0
  1 39  1  0
  1 40  1  0
  1 41  1  0
  2  3  1  0
  3  4  2  0
  3 36  1  0
  4  5  1  0
  4 42  1  0
  5  6  2  0
  5 43  1  0
  6  7  1  0
  6 35  1  0
  7  8  1  0
  7 44  1  0
  8  9  2  0
  8 16  1  0
  9 10  1  0
 10 11  2  0
 10 17  1  0
 11 12  1  0
 11 45  1  0
 12 13  1  0
 12 16  1  0
 13 14  2  0
 13 46  1  0
 14 15  1  0
 14 47  1  0
 15 16  2  0
 17 18  2  0
 17 22  1  0
 18 19  1  0
 18 48  1  0
 19 20  2  0
 19 49  1  0
 20 21  1  0
 20 50  1  0
 21 22  2  0
 21 23  1  0
 22 51  1  0
 23 24  2  0
 23 25  1  0
 25 26  1  0
 25 52  1  0
 26 27  2  0
 26 31  1  0
 27 28  1  0
 27 53  1  0
 28 29  2  0
 28 54  1  0
 29 30  1  0
 29 32  1  0
 30 31  2  0
 30 55  1  0
 31 56  1  0
 32 33  2  0
 32 34  1  0
 34 57  1  0
 34 58  1  0
 35 36  2  0
 35 59  1  0
 36 37  1  0
 37 38  1  0
 38 60  1  0
 38 61  1  0
 38 62  1  0
M  END
>  <s_m_entry_id>  (1) 
1016

>  <IC50[nM]>  (1) 
4.3

>  <s_m_Source_Path>  (1) 
/projects/mai/users/kmzp800_harry/pmx_colab/docking_jobs/syk

>  <s_m_Source_File>  (1) 
tnks2_lig.sdf

>  <i_m_Source_File_Index>  (1) 
29

>  <s_m_job_name>  (1) 
glide-dock_SP_tnks2_core_const

>  <r_i_docking_score>  (1) 
-7.9935639082841

>  <r_i_glide_gscore>  (1) 
-7.9935639082841

>  <r_i_glide_emodel>  (1) 
-66.1356187722963

>  <index_string>  (1) 
28:0:0

$$$$
