2:0:0
     RDKit          3D

 37 39  0  0  1  0  0  0  0  0999 V2000
  -14.4482  -14.8308  -27.6552 C   0  0  0  0  0  0  0  0  0  0  0  0
  -15.0250  -15.6665  -26.6714 C   0  0  0  0  0  0  0  0  0  0  0  0
  -14.5297  -13.4305  -27.5386 C   0  0  0  0  0  0  0  0  0  0  0  0
  -15.6914  -15.0734  -25.5724 C   0  0  0  0  0  0  0  0  0  0  0  0
  -14.8482  -17.0623  -26.7386 N   0  0  0  0  0  0  0  0  0  0  0  0
  -15.2030  -12.8508  -26.4479 C   0  0  0  0  0  0  0  0  0  0  0  0
  -15.7945  -13.6695  -25.4668 C   0  0  0  0  0  0  0  0  0  0  0  0
  -16.2359  -15.9841  -24.5159 C   0  0  0  0  0  0  0  0  0  0  0  0
  -15.9901  -17.2870  -24.6994 N   0  0  0  0  0  0  0  0  0  0  0  0
  -16.8482  -15.5727  -23.5386 O   0  0  0  0  0  0  0  0  0  0  0  0
  -15.2628  -17.8266  -25.7666 C   0  0  0  0  0  0  0  0  0  0  0  0
  -14.9928  -19.2914  -25.7817 C   0  0  0  0  0  0  0  0  0  0  0  0
  -14.8482  -19.9826  -27.0001 C   0  0  0  0  0  0  0  0  0  0  0  0
  -14.5379  -21.3522  -27.0030 C   0  0  0  0  0  0  0  0  0  0  0  0
  -14.3253  -22.0492  -25.8005 C   0  0  0  0  0  0  0  0  0  0  0  0
  -14.5030  -21.3628  -24.5781 C   0  0  0  0  0  0  0  0  0  0  0  0
  -14.8470  -19.9989  -24.5695 C   0  0  0  0  0  0  0  0  0  0  0  0
  -14.0228  -23.5436  -25.8215 C   0  0  0  0  0  0  0  0  0  0  0  0
  -13.3313  -23.9355  -24.6523 O   0  0  0  0  0  0  0  0  0  0  0  0
  -13.0829  -24.0167  -26.9479 C   0  0  0  0  0  0  0  0  0  0  0  0
  -15.3720  -24.2736  -25.9386 C   0  0  0  0  0  0  0  0  0  0  0  0
  -13.7715  -15.3625  -28.6993 F   0  0  0  0  0  0  0  0  0  0  0  0
  -14.0667  -12.7985  -28.2831 H   0  0  0  0  0  0  0  0  0  0  0  0
  -15.2506  -11.7760  -26.3643 H   0  0  0  0  0  0  0  0  0  0  0  0
  -16.3016  -13.2177  -24.6249 H   0  0  0  0  0  0  0  0  0  0  0  0
  -16.3790  -17.9222  -24.0148 H   0  0  0  0  0  0  0  0  0  0  0  0
  -14.9238  -19.4634  -27.9428 H   0  0  0  0  0  0  0  0  0  0  0  0
  -14.4476  -21.8642  -27.9386 H   0  0  0  0  0  0  0  0  0  0  0  0
  -14.3903  -21.8786  -23.6353 H   0  0  0  0  0  0  0  0  0  0  0  0
  -14.9813  -19.5048  -23.6207 H   0  0  0  0  0  0  0  0  0  0  0  0
  -12.4780  -23.5271  -24.6599 H   0  0  0  0  0  0  0  0  0  0  0  0
  -13.4839  -23.8235  -27.9385 H   0  0  0  0  0  0  0  0  0  0  0  0
  -12.9332  -25.0959  -26.8899 H   0  0  0  0  0  0  0  0  0  0  0  0
  -12.0923  -23.5727  -26.8784 H   0  0  0  0  0  0  0  0  0  0  0  0
  -15.9363  -23.9260  -26.8046 H   0  0  0  0  0  0  0  0  0  0  0  0
  -15.2488  -25.3470  -26.0609 H   0  0  0  0  0  0  0  0  0  0  0  0
  -15.9886  -24.1074  -25.0550 H   0  0  0  0  0  0  0  0  0  0  0  0
  1  2  2  0
  1  3  1  0
  1 22  1  0
  2  4  1  0
  2  5  1  0
  3  6  2  0
  3 23  1  0
  4  7  2  0
  4  8  1  0
  5 11  2  0
  6  7  1  0
  6 24  1  0
  7 25  1  0
  8  9  1  0
  8 10  2  0
  9 11  1  0
  9 26  1  0
 11 12  1  0
 12 13  2  0
 12 17  1  0
 13 14  1  0
 13 27  1  0
 14 15  2  0
 14 28  1  0
 15 16  1  0
 15 18  1  0
 16 17  2  0
 16 29  1  0
 17 30  1  0
 18 19  1  0
 18 20  1  0
 18 21  1  0
 19 31  1  0
 20 32  1  0
 20 33  1  0
 20 34  1  0
 21 35  1  0
 21 36  1  0
 21 37  1  0
M  END
>  <s_m_entry_id>  (1) 
417

>  <Name>  (1) 
5f

>  <IC50[nM]>  (1) 
30

>  <s_m_Source_Path>  (1) 
/projects/mai/users/kmzp800_harry/pmx_colab/docking_jobs/tnks2

>  <s_m_Source_File>  (1) 
tnks2_lig.sdf

>  <i_m_Source_File_Index>  (1) 
3

>  <s_m_job_name>  (1) 
glide-dock_SP_tnks2_no_cons

>  <r_i_docking_score>  (1) 
-10.5652551845732

>  <r_i_glide_gscore>  (1) 
-10.5652551845732

>  <r_i_glide_emodel>  (1) 
-66.0579298006436

>  <index_string>  (1) 
2:0:0

$$$$
