18:0:0
     RDKit          3D

 42 44  0  0  1  0  0  0  0  0999 V2000
   39.1887   17.4898   12.6781 O   0  0  0  0  0  0  0  0  0  0  0  0
   40.3657   17.0638   12.6959 C   0  0  0  0  0  0  0  0  0  0  0  0
   41.2238   17.3118   11.8163 O   0  0  0  0  0  0  0  0  0  0  0  0
   40.7633   16.1462   13.8576 C   0  0  0  0  0  0  0  0  0  0  0  0
   42.1209   15.7272   13.7472 O   0  0  0  0  0  0  0  0  0  0  0  0
   42.5263   14.9231   14.7531 C   0  0  0  0  0  0  0  0  0  0  0  0
   42.1707   13.5592   14.8883 C   0  0  0  0  0  0  0  0  0  0  0  0
   41.1755   12.6804   13.5511 Br  0  0  0  0  0  0  0  0  0  0  0  0
   42.6161   12.9301   16.0133 C   0  0  0  0  0  0  0  0  0  0  0  0
   42.3457   11.5803   16.4855 C   0  0  0  0  0  0  0  0  0  0  0  0
   43.3873   10.7553   16.9522 C   0  0  0  0  0  0  0  0  0  0  0  0
   43.1182    9.4460   17.3845 C   0  0  0  0  0  0  0  0  0  0  0  0
   41.8102    8.9502   17.3435 C   0  0  0  0  0  0  0  0  0  0  0  0
   40.7520    9.7556   16.8740 C   0  0  0  0  0  0  0  0  0  0  0  0
   39.4434    9.2628   16.8368 N   0  0  0  0  0  0  0  0  0  0  0  0
   41.0287   11.0721   16.4598 C   0  0  0  0  0  0  0  0  0  0  0  0
   43.6280   14.0090   16.9224 S   0  0  0  0  0  0  0  0  0  0  0  0
   43.3582   15.3082   15.7696 C   0  0  0  0  0  0  0  0  0  0  0  0
   44.0138   16.5823   16.0502 C   0  0  0  0  0  0  0  0  0  0  0  0
   43.8476   17.5459   15.2682 O   0  0  0  0  0  0  0  0  0  0  0  0
   44.7430   16.6880   17.0592 O   0  0  0  0  0  0  0  0  0  0  0  0
   40.5853   16.6652   14.8023 H   0  0  0  0  0  0  0  0  0  0  0  0
   40.1353   15.2605   13.8544 H   0  0  0  0  0  0  0  0  0  0  0  0
   44.3993   11.1212   16.9769 H   0  0  0  0  0  0  0  0  0  0  0  0
   43.9120    8.8197   17.7547 H   0  0  0  0  0  0  0  0  0  0  0  0
   41.6349    7.9443   17.6783 H   0  0  0  0  0  0  0  0  0  0  0  0
   38.7011    9.8231   16.4504 H   0  0  0  0  0  0  0  0  0  0  0  0
   39.7070    7.5564   18.0103 H   0  0  0  0  0  0  0  0  0  0  0  0
   40.2324   11.7125   16.1128 H   0  0  0  0  0  0  0  0  0  0  0  0
   39.1630    7.8603   17.1140 C   0  0  0  0  0  0  0  0  0  0  0  0
   37.6603    7.6600   17.3084 C   0  0  0  0  0  0  0  0  0  0  0  0
   37.0899    7.3618   15.9142 C   0  0  0  0  0  0  0  0  0  0  0  0
   38.2907    7.1195   14.9880 C   0  0  0  0  0  0  0  0  0  0  0  0
   39.5103    6.9899   15.9025 C   0  0  0  0  0  0  0  0  0  0  0  0
   37.4643    6.8340   17.9967 H   0  0  0  0  0  0  0  0  0  0  0  0
   37.2048    8.5494   17.7400 H   0  0  0  0  0  0  0  0  0  0  0  0
   36.4342    6.4919   15.9380 H   0  0  0  0  0  0  0  0  0  0  0  0
   36.4999    8.2080   15.5603 H   0  0  0  0  0  0  0  0  0  0  0  0
   38.1583    6.2461   14.3506 H   0  0  0  0  0  0  0  0  0  0  0  0
   38.4306    7.9837   14.3353 H   0  0  0  0  0  0  0  0  0  0  0  0
   40.4184    7.3315   15.4055 H   0  0  0  0  0  0  0  0  0  0  0  0
   39.6736    5.9498   16.1961 H   0  0  0  0  0  0  0  0  0  0  0  0
  1  2  2  0
  2  3  1  0
  2  4  1  0
  4  5  1  0
  4 22  1  0
  4 23  1  0
  5  6  1  0
  6  7  1  0
  6 18  2  0
  7  8  1  0
  7  9  2  0
  9 10  1  0
  9 17  1  0
 10 11  2  0
 10 16  1  0
 11 12  1  0
 11 24  1  0
 12 13  2  0
 12 25  1  0
 13 14  1  0
 13 26  1  0
 14 15  1  0
 14 16  2  0
 15 27  1  0
 15 30  1  0
 16 29  1  0
 17 18  1  0
 18 19  1  0
 19 20  2  0
 19 21  1  0
 28 30  1  0
 30 31  1  0
 30 34  1  0
 31 32  1  0
 31 35  1  0
 31 36  1  0
 32 33  1  0
 32 37  1  0
 32 38  1  0
 33 34  1  0
 33 39  1  0
 33 40  1  0
 34 41  1  0
 34 42  1  0
M  CHG  2   3  -1  21  -1
M  END
>  <s_m_entry_id>  (1) 
535

>  <s_m_Source_Path>  (1) 
/projects/mai/users/kmzp800_harry/pmx_colab/docking_jobs/ptp1b/glide-dock_SP_ptp1b_mcs_2

>  <s_m_Source_File>  (1) 
glide-dock_SP_ptp1b_mcs_2_pv.maegz

>  <i_m_Source_File_Index>  (1) 
20

>  <r_i_docking_score>  (1) 
-6.46121537558707

>  <r_i_glide_gscore>  (1) 
-6.46121537558707

>  <r_i_glide_emodel>  (1) 
-78.343862067783

>  <index_string>  (1) 
18:0:0

$$$$
