11:0:0
     RDKit          3D

 60 63  0  0  1  0  0  0  0  0999 V2000
   41.0230    9.7930   18.2410 C   0  0  0  0  0  0  0  0  0  0  0  0
   41.9700    8.7820   18.0590 C   0  0  0  0  0  0  0  0  0  0  0  0
   43.1120    9.0210   17.2900 C   0  0  0  0  0  0  0  0  0  0  0  0
   43.3110   10.2730   16.7000 C   0  0  0  0  0  0  0  0  0  0  0  0
   42.3730   11.2990   16.8720 C   0  0  0  0  0  0  0  0  0  0  0  0
   41.2320   11.0450   17.6450 C   0  0  0  0  0  0  0  0  0  0  0  0
   42.5600   12.6430   16.2750 C   0  0  0  0  0  0  0  0  0  0  0  0
   43.5600   13.8310   16.9310 S   0  0  0  0  0  0  0  0  0  0  0  0
   43.2880   15.0110   15.7680 C   0  0  0  0  0  0  0  0  0  0  0  0
   42.4070   14.4790   14.8170 C   0  0  0  0  0  0  0  0  0  0  0  0
   41.9860   13.1700   15.1110 C   0  0  0  0  0  0  0  0  0  0  0  0
   40.8660   12.3140   14.0570 Cl  0  0  0  0  0  0  0  0  0  0  0  0
   43.8140   16.3820   15.8650 C   0  0  0  0  0  0  0  0  0  0  0  0
   44.9660   16.5790   16.3320 O   0  0  0  0  0  0  0  0  0  0  0  0
   43.0310   17.4730   15.5090 O   0  0  0  0  0  0  0  0  0  0  0  0
   41.9770   15.1270   13.6520 O   0  0  0  0  0  0  0  0  0  0  0  0
   40.6890   15.7160   13.5080 C   0  0  0  0  0  0  0  0  0  0  0  0
   40.7630   16.9120   12.6250 C   0  0  0  0  0  0  0  0  0  0  0  0
   41.8710   17.4680   12.4090 O   0  0  0  0  0  0  0  0  0  0  0  0
   39.6150   17.3930   12.0100 O   0  0  0  0  0  0  0  0  0  0  0  0
   39.8560    9.5320   19.0330 N   0  0  0  0  0  0  0  0  0  0  0  0
   36.9060    7.2180   17.0810 N   0  0  0  0  0  0  0  0  0  0  0  0
   37.2640    8.4860   16.4210 C   0  0  0  0  0  0  0  0  0  0  0  0
   38.4960    9.1890   17.0120 C   0  0  0  0  0  0  0  0  0  0  0  0
   38.6100    8.9650   18.5220 C   0  0  0  0  0  0  0  0  0  0  0  0
   38.4950    7.4880   18.9220 C   0  0  0  0  0  0  0  0  0  0  0  0
   38.0540    6.6100   17.7550 C   0  0  0  0  0  0  0  0  0  0  0  0
   36.3990    6.1140   15.8420 S   0  0  0  0  0  0  0  0  0  0  0  0
   37.1420    4.8150   15.9990 O   0  0  0  0  0  0  0  0  0  0  0  0
   34.9240    5.8530   15.9740 O   0  0  0  0  0  0  0  0  0  0  0  0
   36.7400    6.8050   14.2280 C   0  0  0  0  0  0  0  0  0  0  0  0
   35.9720    3.9480   11.1260 C   0  0  0  0  0  0  0  0  0  0  0  0
   34.9150    4.6660   11.6910 C   0  0  0  0  0  0  0  0  0  0  0  0
   35.1650    5.5970   12.7040 C   0  0  0  0  0  0  0  0  0  0  0  0
   36.4730    5.8090   13.1540 C   0  0  0  0  0  0  0  0  0  0  0  0
   37.5310    5.0930   12.5840 C   0  0  0  0  0  0  0  0  0  0  0  0
   37.2810    4.1620   11.5710 C   0  0  0  0  0  0  0  0  0  0  0  0
   41.8163    7.7961   18.5219 H   0  0  0  0  0  0  0  0  0  0  0  0
   43.8557    8.2229   17.1486 H   0  0  0  0  0  0  0  0  0  0  0  0
   44.2120   10.4538   16.0955 H   0  0  0  0  0  0  0  0  0  0  0  0
   40.4871   11.8419   17.7867 H   0  0  0  0  0  0  0  0  0  0  0  0
   40.0011   14.9804   13.0655 H   0  0  0  0  0  0  0  0  0  0  0  0
   40.3244   16.0250   14.4987 H   0  0  0  0  0  0  0  0  0  0  0  0
   39.8995    9.7612   20.0362 H   0  0  0  0  0  0  0  0  0  0  0  0
   37.4648    8.2759   15.3601 H   0  0  0  0  0  0  0  0  0  0  0  0
   36.4137    9.1673   16.5724 H   0  0  0  0  0  0  0  0  0  0  0  0
   39.3993    8.7937   16.5244 H   0  0  0  0  0  0  0  0  0  0  0  0
   38.3906   10.2694   16.8341 H   0  0  0  0  0  0  0  0  0  0  0  0
   37.7553    9.4853   18.9790 H   0  0  0  0  0  0  0  0  0  0  0  0
   39.4759    7.1393   19.2773 H   0  0  0  0  0  0  0  0  0  0  0  0
   37.7334    7.4093   19.7118 H   0  0  0  0  0  0  0  0  0  0  0  0
   37.7712    5.6163   18.1326 H   0  0  0  0  0  0  0  0  0  0  0  0
   38.8845    6.5133   17.0402 H   0  0  0  0  0  0  0  0  0  0  0  0
   36.0985    7.6846   14.0704 H   0  0  0  0  0  0  0  0  0  0  0  0
   37.8017    7.0898   14.1858 H   0  0  0  0  0  0  0  0  0  0  0  0
   35.7749    3.2140   10.3308 H   0  0  0  0  0  0  0  0  0  0  0  0
   33.8863    4.4990   11.3390 H   0  0  0  0  0  0  0  0  0  0  0  0
   34.3327    6.1632   13.1475 H   0  0  0  0  0  0  0  0  0  0  0  0
   38.5603    5.2625   12.9329 H   0  0  0  0  0  0  0  0  0  0  0  0
   38.1132    3.5982   11.1242 H   0  0  0  0  0  0  0  0  0  0  0  0
  1 21  1  0
  1  2  2  0
  1  6  1  0
  2  3  1  0
  2 38  1  0
  3  4  2  0
  3 39  1  0
  4  5  1  0
  4 40  1  0
  5  6  2  0
  5  7  1  0
  6 41  1  0
  7  8  1  0
  7 11  2  0
  8  9  1  0
  9 13  1  0
  9 10  2  0
 10 11  1  0
 10 16  1  0
 11 12  1  0
 13 14  1  0
 13 15  2  0
 16 17  1  0
 17 18  1  0
 17 42  1  0
 17 43  1  0
 18 19  1  0
 18 20  2  0
 21 25  1  0
 21 44  1  0
 22 27  1  0
 22 23  1  0
 22 28  1  0
 23 24  1  0
 23 45  1  0
 23 46  1  0
 24 25  1  0
 24 47  1  0
 24 48  1  0
 25 26  1  0
 25 49  1  0
 26 27  1  0
 26 50  1  0
 26 51  1  0
 27 52  1  0
 27 53  1  0
 28 30  2  0
 28 29  2  0
 28 31  1  0
 31 35  1  0
 31 54  1  0
 31 55  1  0
 32 37  2  0
 32 33  1  0
 32 56  1  0
 33 34  2  0
 33 57  1  0
 34 35  1  0
 34 58  1  0
 35 36  2  0
 36 37  1  0
 36 59  1  0
 37 60  1  0
M  CHG  2  14  -1  19  -1
M  END
>  <s_m_entry_id>  (1) 
1357

>  <MODEL>  (1) 
1

>  <REMARK>  (1) 
 VINA RESULT:    -8.183      0.000      0.000
 INTER + INTRA:         -14.218
 INTER:                 -12.967
 INTRA:                  -1.251
 UNBOUND:                -1.251
  Name = /scratch/kmzp800/tmpxfvg6j9y/tmpwkyc_4co.pdb
  10 active torsions:
  status: ('A' for Active; 'I' for Inactive)
    1  A    between atoms: C4_4  and  C5_5
    2  A    between atoms: C5_5  and  S1_6
    3  A    between atoms: S1_6  and  N1_9
    4  A    between atoms: C8_12  and  N2_13
    5  A    between atoms: N2_13  and  C9_14
    6  A    between atoms: C13_18  and  C14_19
    7  A    between atoms: C15_21  and  C16_22
    8  A    between atoms: C17_25  and  O5_26
    9  A    between atoms: O5_26  and  C18_27
   10  A    between atoms: C18_27  and  C19_28
                            x       y       z     vdW  Elec       q    Type
                         _______ _______ _______ _____ _____    ______ ____

>  <TORSDO>  (1) 
F 10

>  <grid_id>  (1) 
ptp1b-prepared

>  <grid_path>  (1) 
ptp1b_vina.pdbqt

>  <grid_filename>  (1) 
ptp1b_vina.pdbqt

>  <docking_score>  (1) 
-8.183

>  <compound_name>  (1) 
lig_23486

>  <index_string>  (1) 
11:0:0

>  <s_m_Source_Path>  (1) 
/projects/mai/users/kmzp800_harry/pmx_colab/docking_jobs/ptp1b/vina_prep

>  <s_m_Source_File>  (1) 
ptp1b_vina_naive_confs.sdf

>  <i_m_Source_File_Index>  (1) 
12

$$$$
