30:0:0
     RDKit          3D

 47 51  0  0  1  0  0  0  0  0999 V2000
   -4.4828   -3.4588   14.5524 C   0  0  0  0  0  0  0  0  0  0  0  0
   -3.8865   -2.2349   14.1417 O   0  0  0  0  0  0  0  0  0  0  0  0
   -2.5500   -2.0367   14.4308 C   0  0  0  0  0  0  0  0  0  0  0  0
   -1.7585   -2.9449   15.1809 C   0  0  0  0  0  0  0  0  0  0  0  0
   -0.3992   -2.6879   15.4218 C   0  0  0  0  0  0  0  0  0  0  0  0
    0.2008   -1.5081   14.9414 C   0  0  0  0  0  0  0  0  0  0  0  0
    1.5598   -1.3081   15.2608 N   0  0  0  0  0  0  0  0  0  0  0  0
    2.5192   -0.4254   14.7305 C   0  0  0  0  0  0  0  0  0  0  0  0
    2.1964    0.3880   13.7616 N   0  0  0  0  0  0  0  0  0  0  0  0
    3.1296    1.2667   13.2470 C   0  0  0  0  0  0  0  0  0  0  0  0
    4.4327    1.2924   13.6922 C   0  0  0  0  0  0  0  0  0  0  0  0
    4.7641    0.4772   14.7232 N   0  0  0  0  0  0  0  0  0  0  0  0
    5.9100    0.3653   15.4752 C   0  0  0  0  0  0  0  0  0  0  0  0
    5.6029   -0.4951   16.4943 C   0  0  0  0  0  0  0  0  0  0  0  0
    4.3632   -1.0683   16.3202 N   0  0  0  0  0  0  0  0  0  0  0  0
    3.8268   -0.4193   15.2917 C   0  0  0  0  0  0  0  0  0  0  0  0
    2.6532    2.2292   12.2218 C   0  0  0  0  0  0  0  0  0  0  0  0
    3.5258    2.7172   11.2167 C   0  0  0  0  0  0  0  0  0  0  0  0
    3.0837    3.6038   10.2133 C   0  0  0  0  0  0  0  0  0  0  0  0
    1.7464    4.0533   10.1900 C   0  0  0  0  0  0  0  0  0  0  0  0
    0.9316    4.9122    9.3842 C   0  0  0  0  0  0  0  0  0  0  0  0
   -0.2943    4.9942    9.8417 N   0  0  0  0  0  0  0  0  0  0  0  0
   -0.3245    4.2024   10.9430 N   0  0  0  0  0  0  0  0  0  0  0  0
    0.8867    3.5962   11.2220 C   0  0  0  0  0  0  0  0  0  0  0  0
    1.3172    2.6989   12.2170 C   0  0  0  0  0  0  0  0  0  0  0  0
   -0.5912   -0.5899   14.2111 C   0  0  0  0  0  0  0  0  0  0  0  0
   -1.9602   -0.8480   13.9452 C   0  0  0  0  0  0  0  0  0  0  0  0
   -2.7822    0.0163   13.2499 O   0  0  0  0  0  0  0  0  0  0  0  0
   -2.1816    1.1153   12.5760 C   0  0  0  0  0  0  0  0  0  0  0  0
   -5.5248   -3.4787   14.2291 H   0  0  0  0  0  0  0  0  0  0  0  0
   -4.4745   -3.5625   15.6375 H   0  0  0  0  0  0  0  0  0  0  0  0
   -3.9851   -4.3194   14.1047 H   0  0  0  0  0  0  0  0  0  0  0  0
   -2.1674   -3.8653   15.5656 H   0  0  0  0  0  0  0  0  0  0  0  0
    0.1794   -3.4001   15.9913 H   0  0  0  0  0  0  0  0  0  0  0  0
    1.9532   -1.9876   15.9098 H   0  0  0  0  0  0  0  0  0  0  0  0
    5.1920    1.9795   13.3258 H   0  0  0  0  0  0  0  0  0  0  0  0
    6.7607    1.0013   15.2671 H   0  0  0  0  0  0  0  0  0  0  0  0
    6.1405   -0.7533   17.3756 H   0  0  0  0  0  0  0  0  0  0  0  0
    4.5558    2.3922   11.1841 H   0  0  0  0  0  0  0  0  0  0  0  0
    3.7686    3.9430    9.4528 H   0  0  0  0  0  0  0  0  0  0  0  0
    1.2051    5.4700    8.5005 H   0  0  0  0  0  0  0  0  0  0  0  0
   -1.1758    4.1106   11.4830 H   0  0  0  0  0  0  0  0  0  0  0  0
    0.6247    2.3567   12.9708 H   0  0  0  0  0  0  0  0  0  0  0  0
   -0.1616    0.3323   13.8728 H   0  0  0  0  0  0  0  0  0  0  0  0
   -2.9382    1.6449   12.0015 H   0  0  0  0  0  0  0  0  0  0  0  0
   -1.7569    1.8208   13.2906 H   0  0  0  0  0  0  0  0  0  0  0  0
   -1.4086    0.7867   11.8807 H   0  0  0  0  0  0  0  0  0  0  0  0
  1  2  1  0
  1 30  1  0
  1 31  1  0
  1 32  1  0
  2  3  1  0
  3  4  2  0
  3 27  1  0
  4  5  1  0
  4 33  1  0
  5  6  2  0
  5 34  1  0
  6  7  1  0
  6 26  1  0
  7  8  1  0
  7 35  1  0
  8  9  2  0
  8 16  1  0
  9 10  1  0
 10 11  2  0
 10 17  1  0
 11 12  1  0
 11 36  1  0
 12 13  1  0
 12 16  1  0
 13 14  2  0
 13 37  1  0
 14 15  1  0
 14 38  1  0
 15 16  2  0
 17 18  2  0
 17 25  1  0
 18 19  1  0
 18 39  1  0
 19 20  2  0
 19 40  1  0
 20 21  1  0
 20 24  1  0
 21 22  2  0
 21 41  1  0
 22 23  1  0
 23 24  1  0
 23 42  1  0
 24 25  2  0
 25 43  1  0
 26 27  2  0
 26 44  1  0
 27 28  1  0
 28 29  1  0
 29 45  1  0
 29 46  1  0
 29 47  1  0
M  END
>  <s_m_entry_id>  (1) 
1018

>  <IC50[nM]>  (1) 
3.8

>  <s_m_Source_Path>  (1) 
/projects/mai/users/kmzp800_harry/pmx_colab/docking_jobs/syk

>  <s_m_Source_File>  (1) 
tnks2_lig.sdf

>  <i_m_Source_File_Index>  (1) 
31

>  <s_m_job_name>  (1) 
glide-dock_SP_tnks2_core_const

>  <r_i_docking_score>  (1) 
-7.14225084612732

>  <r_i_glide_gscore>  (1) 
-7.14225084612732

>  <r_i_glide_emodel>  (1) 
-48.2433639581995

>  <index_string>  (1) 
30:0:0

$$$$
