22:0:0
     RDKit          3D

 51 54  0  0  1  0  0  0  0  0999 V2000
   -3.8482    6.2247    8.3672 C   0  0  0  0  0  0  0  0  0  0  0  0
   -3.4927    5.0123    9.0179 O   0  0  0  0  0  0  0  0  0  0  0  0
   -2.1809    4.8313    9.4027 C   0  0  0  0  0  0  0  0  0  0  0  0
   -1.1410    5.7365    9.0811 C   0  0  0  0  0  0  0  0  0  0  0  0
    0.1748    5.4952    9.5070 C   0  0  0  0  0  0  0  0  0  0  0  0
    0.4896    4.3518   10.2653 C   0  0  0  0  0  0  0  0  0  0  0  0
    1.8359    4.2003   10.6474 N   0  0  0  0  0  0  0  0  0  0  0  0
    2.4482    3.4373   11.6598 C   0  0  0  0  0  0  0  0  0  0  0  0
    1.8335    2.4325   12.2173 N   0  0  0  0  0  0  0  0  0  0  0  0
    2.4568    1.6988   13.2050 C   0  0  0  0  0  0  0  0  0  0  0  0
    3.7348    1.9925   13.6260 C   0  0  0  0  0  0  0  0  0  0  0  0
    4.3748    3.0497   13.0544 N   0  0  0  0  0  0  0  0  0  0  0  0
    5.6249    3.6038   13.2681 C   0  0  0  0  0  0  0  0  0  0  0  0
    5.7461    4.6455   12.3883 C   0  0  0  0  0  0  0  0  0  0  0  0
    4.5988    4.7730   11.6148 N   0  0  0  0  0  0  0  0  0  0  0  0
    3.7700    3.8142   12.0344 C   0  0  0  0  0  0  0  0  0  0  0  0
    1.6582    0.5761   13.7786 C   0  0  0  0  0  0  0  0  0  0  0  0
    2.2748   -0.5150   14.4330 C   0  0  0  0  0  0  0  0  0  0  0  0
    1.5131   -1.5703   14.9737 C   0  0  0  0  0  0  0  0  0  0  0  0
    0.1041   -1.5854   14.8654 C   0  0  0  0  0  0  0  0  0  0  0  0
   -0.6734   -2.7708   15.3857 C   0  0  0  0  0  0  0  0  0  0  0  0
   -1.5668   -3.2893   14.7194 O   0  0  0  0  0  0  0  0  0  0  0  0
   -0.3698   -3.1959   16.6140 N   0  0  0  0  0  0  0  0  0  0  0  0
   -0.5335   -0.4938   14.2154 C   0  0  0  0  0  0  0  0  0  0  0  0
   -2.0470   -0.4144   14.0548 C   0  0  0  0  0  0  0  0  0  0  0  0
    0.2444    0.5635   13.6946 C   0  0  0  0  0  0  0  0  0  0  0  0
   -0.5452    3.4375   10.5730 C   0  0  0  0  0  0  0  0  0  0  0  0
   -1.8787    3.6720   10.1518 C   0  0  0  0  0  0  0  0  0  0  0  0
   -2.9266    2.8177   10.4325 O   0  0  0  0  0  0  0  0  0  0  0  0
   -2.6728    1.6916   11.2578 C   0  0  0  0  0  0  0  0  0  0  0  0
   -4.9165    6.2155    8.1528 H   0  0  0  0  0  0  0  0  0  0  0  0
   -3.6473    7.0871    9.0032 H   0  0  0  0  0  0  0  0  0  0  0  0
   -3.3256    6.3464    7.4168 H   0  0  0  0  0  0  0  0  0  0  0  0
   -1.3268    6.6284    8.5038 H   0  0  0  0  0  0  0  0  0  0  0  0
    0.9485    6.2050    9.2492 H   0  0  0  0  0  0  0  0  0  0  0  0
    2.4438    4.9500   10.3422 H   0  0  0  0  0  0  0  0  0  0  0  0
    4.2659    1.4573   14.4040 H   0  0  0  0  0  0  0  0  0  0  0  0
    6.2986    3.1920   14.0019 H   0  0  0  0  0  0  0  0  0  0  0  0
    6.5832    5.3135   12.2368 H   0  0  0  0  0  0  0  0  0  0  0  0
    3.3523   -0.5625   14.5163 H   0  0  0  0  0  0  0  0  0  0  0  0
    2.0259   -2.3941   15.4472 H   0  0  0  0  0  0  0  0  0  0  0  0
   -0.8953   -3.9631   17.0173 H   0  0  0  0  0  0  0  0  0  0  0  0
    0.3766   -2.7676   17.1553 H   0  0  0  0  0  0  0  0  0  0  0  0
   -2.3645    0.6121   13.9075 H   0  0  0  0  0  0  0  0  0  0  0  0
   -2.3625   -1.0012   13.1927 H   0  0  0  0  0  0  0  0  0  0  0  0
   -2.5644   -0.7809   14.9400 H   0  0  0  0  0  0  0  0  0  0  0  0
   -0.2605    1.3880   13.2144 H   0  0  0  0  0  0  0  0  0  0  0  0
   -0.3120    2.5442   11.1216 H   0  0  0  0  0  0  0  0  0  0  0  0
   -3.6018    1.1469   11.4170 H   0  0  0  0  0  0  0  0  0  0  0  0
   -1.9608    1.0034   10.8004 H   0  0  0  0  0  0  0  0  0  0  0  0
   -2.2996    2.0066   12.2318 H   0  0  0  0  0  0  0  0  0  0  0  0
  1  2  1  0
  1 31  1  0
  1 32  1  0
  1 33  1  0
  2  3  1  0
  3  4  2  0
  3 28  1  0
  4  5  1  0
  4 34  1  0
  5  6  2  0
  5 35  1  0
  6  7  1  0
  6 27  1  0
  7  8  1  0
  7 36  1  0
  8  9  2  0
  8 16  1  0
  9 10  1  0
 10 11  2  0
 10 17  1  0
 11 12  1  0
 11 37  1  0
 12 13  1  0
 12 16  1  0
 13 14  2  0
 13 38  1  0
 14 15  1  0
 14 39  1  0
 15 16  2  0
 17 18  2  0
 17 26  1  0
 18 19  1  0
 18 40  1  0
 19 20  2  0
 19 41  1  0
 20 21  1  0
 20 24  1  0
 21 22  2  0
 21 23  1  0
 23 42  1  0
 23 43  1  0
 24 25  1  0
 24 26  2  0
 25 44  1  0
 25 45  1  0
 25 46  1  0
 26 47  1  0
 27 28  2  0
 27 48  1  0
 28 29  1  0
 29 30  1  0
 30 49  1  0
 30 50  1  0
 30 51  1  0
M  END
>  <s_m_entry_id>  (1) 
702

>  <IC50[nM]>  (1) 
64.1

>  <s_m_Source_Path>  (1) 
/projects/mai/users/kmzp800_harry/pmx_colab/docking_jobs/syk

>  <s_m_Source_File>  (1) 
tnks2_lig.sdf

>  <i_m_Source_File_Index>  (1) 
23

>  <s_m_job_name>  (1) 
glide-dock_SP_tnks2_no_const

>  <r_i_docking_score>  (1) 
-7.25512053997768

>  <r_i_glide_gscore>  (1) 
-7.25512053997768

>  <r_i_glide_emodel>  (1) 
-70.2810912514482

>  <index_string>  (1) 
22:0:0

$$$$
