1:0:0
     RDKit          3D

 49 52  0  0  1  0  0  0  0  0999 V2000
   34.5518   35.0950   21.2353 C   0  0  0  0  0  0  0  0  0  0  0  0
   34.1063   38.9794   23.9533 C   0  0  0  0  0  0  0  0  0  0  0  0
   34.8847   37.9002   21.6203 C   0  0  0  0  0  0  0  0  0  0  0  0
   35.2215   37.2804   20.3424 C   0  0  0  0  0  0  0  0  0  0  0  0
   34.4219   37.0857   22.6725 C   0  0  0  0  0  0  0  0  0  0  0  0
   34.9466   39.2847   21.8581 C   0  0  0  0  0  0  0  0  0  0  0  0
   35.0624   35.9516   20.1630 C   0  0  0  0  0  0  0  0  0  0  0  0
   33.9116   34.8260   23.5776 C   0  0  0  0  0  0  0  0  0  0  0  0
   34.5517   39.8294   23.0294 N   0  0  0  0  0  0  0  0  0  0  0  0
   34.3258   33.9033   21.0324 O   0  0  0  0  0  0  0  0  0  0  0  0
   34.3349   35.6739   22.4511 N   0  0  0  0  0  0  0  0  0  0  0  0
   34.0467   37.6540   23.8391 N   0  0  0  0  0  0  0  0  0  0  0  0
   33.6376   39.5493   25.1200 N   0  0  0  0  0  0  0  0  0  0  0  0
   35.5627   37.9244   19.5446 H   0  0  0  0  0  0  0  0  0  0  0  0
   35.2991   39.9494   21.0888 H   0  0  0  0  0  0  0  0  0  0  0  0
   34.3137   35.1884   24.5241 H   0  0  0  0  0  0  0  0  0  0  0  0
   32.8242   34.8237   23.6540 H   0  0  0  0  0  0  0  0  0  0  0  0
   34.2466   33.7909   23.4913 H   0  0  0  0  0  0  0  0  0  0  0  0
   33.7521   40.5526   25.2183 H   0  0  0  0  0  0  0  0  0  0  0  0
   31.1299   37.4492   27.1484 C   0  0  0  0  0  0  0  0  0  0  0  0
   31.6894   38.2082   25.9336 C   0  0  0  0  0  0  0  0  0  0  0  0
   33.0700   38.8279   26.2543 C   0  0  0  0  0  0  0  0  0  0  0  0
   32.9494   39.7671   27.4706 C   0  0  0  0  0  0  0  0  0  0  0  0
   32.3653   39.0402   28.6935 C   0  0  0  0  0  0  0  0  0  0  0  0
   31.0155   38.3806   28.3633 C   0  0  0  0  0  0  0  0  0  0  0  0
   31.7807   36.6060   27.3842 H   0  0  0  0  0  0  0  0  0  0  0  0
   30.1530   37.0281   26.9070 H   0  0  0  0  0  0  0  0  0  0  0  0
   30.9894   38.9907   25.6364 H   0  0  0  0  0  0  0  0  0  0  0  0
   31.7532   37.5202   25.0913 H   0  0  0  0  0  0  0  0  0  0  0  0
   33.7623   38.0238   26.5092 H   0  0  0  0  0  0  0  0  0  0  0  0
   33.9263   40.1801   27.7251 H   0  0  0  0  0  0  0  0  0  0  0  0
   32.3138   40.6177   27.2193 H   0  0  0  0  0  0  0  0  0  0  0  0
   33.0719   38.2813   29.0327 H   0  0  0  0  0  0  0  0  0  0  0  0
   32.2464   39.7450   29.5175 H   0  0  0  0  0  0  0  0  0  0  0  0
   30.2813   39.1490   28.1337 H   0  0  0  0  0  0  0  0  0  0  0  0
   30.5521   37.6645   29.4867 O   0  0  0  0  0  0  0  0  0  0  0  0
   29.8483   38.1596   29.8891 H   0  0  0  0  0  0  0  0  0  0  0  0
   35.2719   35.3229   18.9603 O   0  0  0  0  0  0  0  0  0  0  0  0
   37.9295   36.6049   15.9926 C   0  0  0  0  0  0  0  0  0  0  0  0
   38.4295   36.3493   17.2877 C   0  0  0  0  0  0  0  0  0  0  0  0
   37.5396   36.0268   18.3333 C   0  0  0  0  0  0  0  0  0  0  0  0
   36.1774   35.7824   18.0385 C   0  0  0  0  0  0  0  0  0  0  0  0
   35.7521   35.8578   16.7037 C   0  0  0  0  0  0  0  0  0  0  0  0
   36.5877   36.3493   15.6923 C   0  0  0  0  0  0  0  0  0  0  0  0
   38.7106   37.1493   15.0432 F   0  0  0  0  0  0  0  0  0  0  0  0
   39.4680   36.5481   17.5080 H   0  0  0  0  0  0  0  0  0  0  0  0
   38.0010   35.9492   19.6019 F   0  0  0  0  0  0  0  0  0  0  0  0
   34.7342   35.5834   16.4637 H   0  0  0  0  0  0  0  0  0  0  0  0
   36.2137   36.5229   14.6896 H   0  0  0  0  0  0  0  0  0  0  0  0
  1  7  1  0
  1 10  2  0
  1 11  1  0
  2  9  1  0
  2 12  2  0
  2 13  1  0
  3  4  1  0
  3  5  2  0
  3  6  1  0
  4  7  2  0
  4 14  1  0
  5 11  1  0
  5 12  1  0
  6  9  2  0
  6 15  1  0
  7 38  1  0
  8 11  1  0
  8 16  1  0
  8 17  1  0
  8 18  1  0
 13 19  1  0
 13 22  1  0
 20 21  1  0
 20 25  1  0
 20 26  1  0
 20 27  1  0
 21 22  1  0
 21 28  1  0
 21 29  1  0
 22 23  1  0
 22 30  1  0
 23 24  1  0
 23 31  1  0
 23 32  1  0
 24 25  1  0
 24 33  1  0
 24 34  1  0
 25 35  1  0
 25 36  1  0
 36 37  1  0
 38 42  1  0
 39 40  2  0
 39 44  1  0
 39 45  1  0
 40 41  1  0
 40 46  1  0
 41 42  2  0
 41 47  1  0
 42 43  1  0
 43 44  2  0
 43 48  1  0
 44 49  1  0
M  END
>  <s_m_entry_id>  (1) 
819

>  <s_m_Source_Path>  (1) 
/projects/mai/users/kmzp800_harry/pmx_colab/docking_jobs/p38/glide-dock_SP_p38_mcs_docking_2

>  <s_m_Source_File>  (1) 
glide-dock_SP_p38_mcs_docking_2_pv.maegz

>  <i_m_Source_File_Index>  (1) 
3

>  <s_pdb_PDB_TITLE>  (1) 
MX MODEL

>  <r_i_docking_score>  (1) 
-8.04947342092117

>  <r_i_glide_gscore>  (1) 
-8.04947342092117

>  <r_i_glide_emodel>  (1) 
-57.3752884372117

>  <index_string>  (1) 
1:0:0

$$$$
