19:0:0
     RDKit          3D

 50 54  0  0  1  0  0  0  0  0999 V2000
   -4.5694   -3.2509   14.9429 C   0  0  0  0  0  0  0  0  0  0  0  0
   -3.9284   -2.1080   14.3765 O   0  0  0  0  0  0  0  0  0  0  0  0
   -2.5707   -1.9545   14.5872 C   0  0  0  0  0  0  0  0  0  0  0  0
   -1.7870   -2.8567   15.3452 C   0  0  0  0  0  0  0  0  0  0  0  0
   -0.4121   -2.6273   15.5349 C   0  0  0  0  0  0  0  0  0  0  0  0
    0.2102   -1.4953   14.9747 C   0  0  0  0  0  0  0  0  0  0  0  0
    1.5746   -1.3156   15.2542 N   0  0  0  0  0  0  0  0  0  0  0  0
    2.5263   -0.4277   14.7287 C   0  0  0  0  0  0  0  0  0  0  0  0
    2.2018    0.3835   13.7576 N   0  0  0  0  0  0  0  0  0  0  0  0
    3.1297    1.2651   13.2488 C   0  0  0  0  0  0  0  0  0  0  0  0
    4.4303    1.2912   13.6895 C   0  0  0  0  0  0  0  0  0  0  0  0
    4.7651    0.4746   14.7188 N   0  0  0  0  0  0  0  0  0  0  0  0
    5.9109    0.3684   15.4766 C   0  0  0  0  0  0  0  0  0  0  0  0
    5.6011   -0.4942   16.4962 C   0  0  0  0  0  0  0  0  0  0  0  0
    4.3614   -1.0639   16.3251 N   0  0  0  0  0  0  0  0  0  0  0  0
    3.8329   -0.4215   15.2921 C   0  0  0  0  0  0  0  0  0  0  0  0
    2.6577    2.2366   12.2293 C   0  0  0  0  0  0  0  0  0  0  0  0
    3.5474    2.7200   11.2365 C   0  0  0  0  0  0  0  0  0  0  0  0
    3.1190    3.6058   10.2320 C   0  0  0  0  0  0  0  0  0  0  0  0
    1.7821    4.0418   10.2199 C   0  0  0  0  0  0  0  0  0  0  0  0
    1.3068    4.8578    9.1725 N   0  0  0  0  0  0  0  0  0  0  0  0
    0.0746    5.3797    9.1797 C   0  0  0  0  0  0  0  0  0  0  0  0
   -0.3883    5.9901    8.2172 O   0  0  0  0  0  0  0  0  0  0  0  0
   -0.7463    5.2110   10.4712 C   0  0  0  0  0  0  0  0  0  0  0  0
   -0.4387    4.0020   11.1902 O   0  0  0  0  0  0  0  0  0  0  0  0
    0.8824    3.6039   11.2193 C   0  0  0  0  0  0  0  0  0  0  0  0
    1.3227    2.7138   12.2161 C   0  0  0  0  0  0  0  0  0  0  0  0
   -0.5764   -0.5961   14.2174 C   0  0  0  0  0  0  0  0  0  0  0  0
   -1.9581   -0.8140   14.0157 C   0  0  0  0  0  0  0  0  0  0  0  0
   -2.7704    0.0359   13.2880 O   0  0  0  0  0  0  0  0  0  0  0  0
   -2.1666    1.0742   12.5313 C   0  0  0  0  0  0  0  0  0  0  0  0
   -5.6246   -3.2445   14.6884 H   0  0  0  0  0  0  0  0  0  0  0  0
   -4.5051   -3.2535   16.0325 H   0  0  0  0  0  0  0  0  0  0  0  0
   -4.1546   -4.1763   14.5486 H   0  0  0  0  0  0  0  0  0  0  0  0
   -2.2138   -3.7382   15.8058 H   0  0  0  0  0  0  0  0  0  0  0  0
    0.1629   -3.3256   16.1327 H   0  0  0  0  0  0  0  0  0  0  0  0
    1.9644   -1.9843   15.9113 H   0  0  0  0  0  0  0  0  0  0  0  0
    5.1805    1.9919   13.3456 H   0  0  0  0  0  0  0  0  0  0  0  0
    6.7752    0.9780   15.2647 H   0  0  0  0  0  0  0  0  0  0  0  0
    6.1221   -0.7536   17.3927 H   0  0  0  0  0  0  0  0  0  0  0  0
    4.5695    2.3749   11.2123 H   0  0  0  0  0  0  0  0  0  0  0  0
    3.8100    3.9269    9.4703 H   0  0  0  0  0  0  0  0  0  0  0  0
    1.9031    5.0272    8.3798 H   0  0  0  0  0  0  0  0  0  0  0  0
   -1.8079    5.2268   10.2334 H   0  0  0  0  0  0  0  0  0  0  0  0
   -0.5420    6.0658   11.1145 H   0  0  0  0  0  0  0  0  0  0  0  0
    0.6209    2.3795   12.9672 H   0  0  0  0  0  0  0  0  0  0  0  0
   -0.1398    0.2917   13.8098 H   0  0  0  0  0  0  0  0  0  0  0  0
   -2.9257    1.5782   11.9358 H   0  0  0  0  0  0  0  0  0  0  0  0
   -1.7106    1.8256   13.1754 H   0  0  0  0  0  0  0  0  0  0  0  0
   -1.4236    0.6795   11.8322 H   0  0  0  0  0  0  0  0  0  0  0  0
  1  2  1  0
  1 32  1  0
  1 33  1  0
  1 34  1  0
  2  3  1  0
  3  4  2  0
  3 29  1  0
  4  5  1  0
  4 35  1  0
  5  6  2  0
  5 36  1  0
  6  7  1  0
  6 28  1  0
  7  8  1  0
  7 37  1  0
  8  9  2  0
  8 16  1  0
  9 10  1  0
 10 11  2  0
 10 17  1  0
 11 12  1  0
 11 38  1  0
 12 13  1  0
 12 16  1  0
 13 14  2  0
 13 39  1  0
 14 15  1  0
 14 40  1  0
 15 16  2  0
 17 18  2  0
 17 27  1  0
 18 19  1  0
 18 41  1  0
 19 20  2  0
 19 42  1  0
 20 21  1  0
 20 26  1  0
 21 22  1  0
 21 43  1  0
 22 23  2  0
 22 24  1  0
 24 25  1  0
 24 44  1  0
 24 45  1  0
 25 26  1  0
 26 27  2  0
 27 46  1  0
 28 29  2  0
 28 47  1  0
 29 30  1  0
 30 31  1  0
 31 48  1  0
 31 49  1  0
 31 50  1  0
M  END
>  <s_m_entry_id>  (1) 
1007

>  <IC50[nM]>  (1) 
33.4

>  <s_m_Source_Path>  (1) 
/projects/mai/users/kmzp800_harry/pmx_colab/docking_jobs/syk

>  <s_m_Source_File>  (1) 
tnks2_lig.sdf

>  <i_m_Source_File_Index>  (1) 
20

>  <s_m_job_name>  (1) 
glide-dock_SP_tnks2_core_const

>  <r_i_docking_score>  (1) 
-7.23445234850961

>  <r_i_glide_gscore>  (1) 
-7.23445234850961

>  <r_i_glide_emodel>  (1) 
-52.5689777648871

>  <index_string>  (1) 
19:0:0

$$$$
