16:0:0
     RDKit          3D

 51 54  0  0  1  0  0  0  0  0999 V2000
    5.7010   -0.5570   16.4920 C   0  0  0  0  0  0  0  0  0  0  0  0
    4.4150   -0.9610   16.3330 N   0  0  0  0  0  0  0  0  0  0  0  0
    3.9950   -0.2630   15.2640 C   0  0  0  0  0  0  0  0  0  0  0  0
    2.7310   -0.3100   14.6810 C   0  0  0  0  0  0  0  0  0  0  0  0
    1.7140   -1.1690   15.2150 N   0  0  0  0  0  0  0  0  0  0  0  0
    2.5060    0.4830   13.5920 N   0  0  0  0  0  0  0  0  0  0  0  0
    3.4720    1.3070   13.0740 C   0  0  0  0  0  0  0  0  0  0  0  0
    4.7420    1.3350   13.6840 C   0  0  0  0  0  0  0  0  0  0  0  0
    4.9380    0.5380   14.7600 N   0  0  0  0  0  0  0  0  0  0  0  0
    6.0330    0.3780   15.5140 C   0  0  0  0  0  0  0  0  0  0  0  0
    0.3740   -1.3290   14.7310 C   0  0  0  0  0  0  0  0  0  0  0  0
   -0.3510   -2.5130   14.9250 C   0  0  0  0  0  0  0  0  0  0  0  0
   -1.6550   -2.6300   14.4390 C   0  0  0  0  0  0  0  0  0  0  0  0
   -2.2560   -1.5630   13.7500 C   0  0  0  0  0  0  0  0  0  0  0  0
   -1.5360   -0.3760   13.5530 C   0  0  0  0  0  0  0  0  0  0  0  0
   -0.2250   -0.2690   14.0450 C   0  0  0  0  0  0  0  0  0  0  0  0
   -3.5610   -1.6630   13.2560 O   0  0  0  0  0  0  0  0  0  0  0  0
   -4.1620   -2.9050   12.9160 C   0  0  0  0  0  0  0  0  0  0  0  0
   -2.1400    0.6830   12.8660 O   0  0  0  0  0  0  0  0  0  0  0  0
   -1.6120    1.2180   11.6600 C   0  0  0  0  0  0  0  0  0  0  0  0
    3.1740    2.1450   11.8940 C   0  0  0  0  0  0  0  0  0  0  0  0
    4.1710    2.3980   10.9420 C   0  0  0  0  0  0  0  0  0  0  0  0
    3.8980    3.1890    9.8230 C   0  0  0  0  0  0  0  0  0  0  0  0
    2.6250    3.7350    9.6480 C   0  0  0  0  0  0  0  0  0  0  0  0
    1.6150    3.4940   10.5880 C   0  0  0  0  0  0  0  0  0  0  0  0
    1.8970    2.6990   11.7080 C   0  0  0  0  0  0  0  0  0  0  0  0
    0.2710    4.0690   10.4030 C   0  0  0  0  0  0  0  0  0  0  0  0
   -0.4190    3.7500    9.3960 O   0  0  0  0  0  0  0  0  0  0  0  0
   -0.2540    4.9890   11.3650 N   0  0  0  0  0  0  0  0  0  0  0  0
   -1.5730    5.5820   11.2250 C   0  0  0  0  0  0  0  0  0  0  0  0
    6.3817   -0.9155   17.2782 H   0  0  0  0  0  0  0  0  0  0  0  0
    1.9751   -1.7329   16.0365 H   0  0  0  0  0  0  0  0  0  0  0  0
    5.5449    1.9812   13.2995 H   0  0  0  0  0  0  0  0  0  0  0  0
    7.0014    0.8839   15.3866 H   0  0  0  0  0  0  0  0  0  0  0  0
    0.1098   -3.3546   15.4630 H   0  0  0  0  0  0  0  0  0  0  0  0
   -2.2152   -3.5634   14.5966 H   0  0  0  0  0  0  0  0  0  0  0  0
    0.3385    0.6626   13.8881 H   0  0  0  0  0  0  0  0  0  0  0  0
   -4.4252   -3.4488   13.8352 H   0  0  0  0  0  0  0  0  0  0  0  0
   -5.0715   -2.7226   12.3248 H   0  0  0  0  0  0  0  0  0  0  0  0
   -3.4546   -3.5050   12.3248 H   0  0  0  0  0  0  0  0  0  0  0  0
   -0.8575    1.9825   11.8974 H   0  0  0  0  0  0  0  0  0  0  0  0
   -1.1456    0.4119   11.0745 H   0  0  0  0  0  0  0  0  0  0  0  0
   -2.4241    1.6737   11.0745 H   0  0  0  0  0  0  0  0  0  0  0  0
    5.1757    1.9708   11.0767 H   0  0  0  0  0  0  0  0  0  0  0  0
    4.6860    3.3815    9.0800 H   0  0  0  0  0  0  0  0  0  0  0  0
    2.4140    4.3583    8.7665 H   0  0  0  0  0  0  0  0  0  0  0  0
    1.1082    2.5068   12.4502 H   0  0  0  0  0  0  0  0  0  0  0  0
    0.3211    5.2386   12.1822 H   0  0  0  0  0  0  0  0  0  0  0  0
   -1.9970    5.7726   12.2219 H   0  0  0  0  0  0  0  0  0  0  0  0
   -1.4920    6.5303   10.6735 H   0  0  0  0  0  0  0  0  0  0  0  0
   -2.2286    4.8920   10.6735 H   0  0  0  0  0  0  0  0  0  0  0  0
  1  2  1  0
  1 10  2  0
  2  3  2  0
  3  4  1  0
  3  9  1  0
  4  5  1  0
  4  6  2  0
  5 11  1  0
  6  7  1  0
  7  8  2  0
  7 21  1  0
  8  9  1  0
  9 10  1  0
 11 12  2  0
 11 16  1  0
 12 13  1  0
 13 14  2  0
 14 15  1  0
 14 17  1  0
 15 16  2  0
 15 19  1  0
 17 18  1  0
 19 20  1  0
 21 22  2  0
 21 26  1  0
 22 23  1  0
 23 24  2  0
 24 25  1  0
 25 26  2  0
 25 27  1  0
 27 29  1  0
 27 28  2  0
 29 30  1  0
  1 31  1  0
  5 32  1  0
  8 33  1  0
 10 34  1  0
 12 35  1  0
 13 36  1  0
 16 37  1  0
 18 38  1  0
 18 39  1  0
 18 40  1  0
 20 41  1  0
 20 42  1  0
 20 43  1  0
 22 44  1  0
 23 45  1  0
 24 46  1  0
 26 47  1  0
 29 48  1  0
 30 49  1  0
 30 50  1  0
 30 51  1  0
M  END
>  <s_m_entry_id>  (1) 
17

>  <MODEL>  (1) 
1

>  <REMARK>  (1) 
 VINA RESULT:    -9.802      0.000      0.000
 INTER + INTRA:         -13.260
 INTER:                 -12.667
 INTRA:                  -0.593
 UNBOUND:                -0.593
  Name = /scratch/kmzp800/tmp8ofp5mq1/tmpuk5ijbpd.pdb
  8 active torsions:
  status: ('A' for Active; 'I' for Inactive)
    1  A    between atoms: N2_5  and  C4_6
    2  A    between atoms: C7_9  and  O1_10
    3  A    between atoms: O1_10  and  C8_11
    4  A    between atoms: C9_12  and  O2_13
    5  A    between atoms: O2_13  and  C10_14
    6  A    between atoms: C12_17  and  C13_18
    7  A    between atoms: C17_22  and  C18_23
    8  A    between atoms: N4_25  and  C19_26
                            x       y       z     vdW  Elec       q    Type
                         _______ _______ _______ _____ _____    ______ ____

>  <TORSDO>  (1) 
F 5

>  <grid_id>  (1) 
syk-prepared

>  <grid_path>  (1) 
syk_vina.pdbqt

>  <grid_filename>  (1) 
syk_vina.pdbqt

>  <docking_score>  (1) 
-9.802

>  <compound_name>  (1) 
CHEMBL3265006

>  <index_string>  (1) 
16:0:0

>  <s_m_Source_Path>  (1) 
/projects/mai/users/kmzp800_harry/pmx_colab/docking_jobs/syk/vina_prep/output

>  <s_m_Source_File>  (1) 
ptp1b_docked_conformers.sdf

>  <i_m_Source_File_Index>  (1) 
17

$$$$
