14:0:0
     RDKit          3D

 46 49  0  0  1  0  0  0  0  0999 V2000
   38.9520   36.3513   15.9872 F   0  0  0  0  0  0  0  0  0  0  0  0
   37.8846   36.0864   16.7639 C   0  0  0  0  0  0  0  0  0  0  0  0
   37.9911   36.1595   18.1655 C   0  0  0  0  0  0  0  0  0  0  0  0
   36.8525   35.9496   18.9677 C   0  0  0  0  0  0  0  0  0  0  0  0
   35.6069   35.6464   18.3617 C   0  0  0  0  0  0  0  0  0  0  0  0
   35.5234   35.5492   16.9603 C   0  0  0  0  0  0  0  0  0  0  0  0
   36.6555   35.7788   16.1622 C   0  0  0  0  0  0  0  0  0  0  0  0
   34.4654   35.3863   19.0784 O   0  0  0  0  0  0  0  0  0  0  0  0
   34.2820   35.9842   20.2950 C   0  0  0  0  0  0  0  0  0  0  0  0
   34.3692   37.3228   20.4341 C   0  0  0  0  0  0  0  0  0  0  0  0
   33.9685   35.1075   21.4249 C   0  0  0  0  0  0  0  0  0  0  0  0
   33.9605   33.8838   21.2930 O   0  0  0  0  0  0  0  0  0  0  0  0
   33.7184   35.7133   22.6213 N   0  0  0  0  0  0  0  0  0  0  0  0
   33.3590   34.8932   23.7904 C   0  0  0  0  0  0  0  0  0  0  0  0
   33.8427   37.1267   22.8284 C   0  0  0  0  0  0  0  0  0  0  0  0
   34.1762   37.9476   21.7316 C   0  0  0  0  0  0  0  0  0  0  0  0
   33.6675   37.6851   24.0435 N   0  0  0  0  0  0  0  0  0  0  0  0
   33.8219   39.0014   24.1651 C   0  0  0  0  0  0  0  0  0  0  0  0
   34.1522   39.8554   23.1975 N   0  0  0  0  0  0  0  0  0  0  0  0
   34.3246   39.3280   21.9691 C   0  0  0  0  0  0  0  0  0  0  0  0
   33.6229   39.5493   25.4121 N   0  0  0  0  0  0  0  0  0  0  0  0
   33.0201   38.8543   26.5440 C   0  0  0  0  0  0  0  0  0  0  0  0
   33.2451   39.6339   27.8462 C   0  0  0  0  0  0  0  0  0  0  0  0
   32.5649   38.9125   29.0209 C   0  0  0  0  0  0  0  0  0  0  0  0
   31.1762   38.7493   28.7563 O   0  0  0  0  0  0  0  0  0  0  0  0
   30.9047   37.9648   27.5997 C   0  0  0  0  0  0  0  0  0  0  0  0
   31.5085   38.6376   26.3548 C   0  0  0  0  0  0  0  0  0  0  0  0
   38.9469   36.3844   18.6197 H   0  0  0  0  0  0  0  0  0  0  0  0
   36.9492   36.0059   20.0427 H   0  0  0  0  0  0  0  0  0  0  0  0
   34.5777   35.3124   16.4943 H   0  0  0  0  0  0  0  0  0  0  0  0
   36.5798   35.7314   15.0891 H   0  0  0  0  0  0  0  0  0  0  0  0
   34.5888   37.9595   19.5896 H   0  0  0  0  0  0  0  0  0  0  0  0
   34.1847   34.8820   24.5040 H   0  0  0  0  0  0  0  0  0  0  0  0
   32.4873   35.3132   24.2959 H   0  0  0  0  0  0  0  0  0  0  0  0
   33.1100   33.8553   23.5597 H   0  0  0  0  0  0  0  0  0  0  0  0
   34.5872   40.0097   21.1735 H   0  0  0  0  0  0  0  0  0  0  0  0
   33.7506   40.5533   25.4913 H   0  0  0  0  0  0  0  0  0  0  0  0
   33.5056   37.8826   26.6438 H   0  0  0  0  0  0  0  0  0  0  0  0
   34.3120   39.7417   28.0440 H   0  0  0  0  0  0  0  0  0  0  0  0
   32.8386   40.6421   27.7554 H   0  0  0  0  0  0  0  0  0  0  0  0
   33.0262   37.9408   29.2011 H   0  0  0  0  0  0  0  0  0  0  0  0
   32.6813   39.4970   29.9333 H   0  0  0  0  0  0  0  0  0  0  0  0
   31.3014   36.9579   27.7299 H   0  0  0  0  0  0  0  0  0  0  0  0
   29.8247   37.8696   27.4868 H   0  0  0  0  0  0  0  0  0  0  0  0
   31.0110   39.5926   26.1814 H   0  0  0  0  0  0  0  0  0  0  0  0
   31.3111   38.0210   25.4778 H   0  0  0  0  0  0  0  0  0  0  0  0
  1  2  1  0
  2  7  2  0
  2  3  1  0
  3  4  2  0
  3 28  1  0
  4  5  1  0
  4 29  1  0
  5  6  2  0
  5  8  1  0
  6  7  1  0
  6 30  1  0
  7 31  1  0
  8  9  1  0
  9 10  2  0
  9 11  1  0
 10 16  1  0
 10 32  1  0
 11 12  2  0
 11 13  1  0
 13 14  1  0
 13 15  1  0
 14 33  1  0
 14 34  1  0
 14 35  1  0
 15 16  2  0
 15 17  1  0
 16 20  1  0
 17 18  2  0
 18 19  1  0
 18 21  1  0
 19 20  2  0
 20 36  1  0
 21 22  1  0
 21 37  1  0
 22 27  1  0
 22 23  1  0
 22 38  1  0
 23 24  1  0
 23 39  1  0
 23 40  1  0
 24 25  1  0
 24 41  1  0
 24 42  1  0
 25 26  1  0
 26 27  1  0
 26 43  1  0
 26 44  1  0
 27 45  1  0
 27 46  1  0
M  END
>  <s_m_entry_id>  (1) 
731

>  <i_f3d_flags>  (1) 
0

>  <r_lp_tautomer_probability>  (1) 
1

>  <r_epik_Ionization_Penalty>  (1) 
  0.0000

>  <r_epik_State_Penalty>  (1) 
  0.0000

>  <i_epik_Tot_Q>  (1) 
0

>  <s_m_job_name>  (1) 
glide-dock_SP_p38_all_ligs_no_cons_10_poses

>  <r_i_docking_score>  (1) 
-7.42915205253395

>  <r_i_glide_gscore>  (1) 
-7.42915205253395

>  <r_i_glide_emodel>  (1) 
-59.6229243139491

>  <index_string>  (1) 
14:0:0

$$$$
