7:0:0
     RDKit          3D

 49 51  0  0  1  0  0  0  0  0999 V2000
   39.4439   17.8863   12.8183 O   0  0  0  0  0  0  0  0  0  0  0  0
   40.5819   17.3640   12.7960 C   0  0  0  0  0  0  0  0  0  0  0  0
   41.3957   17.4847   11.8481 O   0  0  0  0  0  0  0  0  0  0  0  0
   40.9885   16.5411   14.0258 C   0  0  0  0  0  0  0  0  0  0  0  0
   42.1433   15.7527   13.7637 O   0  0  0  0  0  0  0  0  0  0  0  0
   42.5120   14.9433   14.7840 C   0  0  0  0  0  0  0  0  0  0  0  0
   42.1482   13.5789   14.8959 C   0  0  0  0  0  0  0  0  0  0  0  0
   40.9837   12.7926   13.6475 Br  0  0  0  0  0  0  0  0  0  0  0  0
   42.6099   12.9210   15.9969 C   0  0  0  0  0  0  0  0  0  0  0  0
   43.6423   13.9813   16.9089 S   0  0  0  0  0  0  0  0  0  0  0  0
   43.3407   15.3034   15.8069 C   0  0  0  0  0  0  0  0  0  0  0  0
   43.9888   16.5667   16.1164 C   0  0  0  0  0  0  0  0  0  0  0  0
   43.9332   17.5022   15.2938 O   0  0  0  0  0  0  0  0  0  0  0  0
   44.5835   16.6861   17.2058 O   0  0  0  0  0  0  0  0  0  0  0  0
   42.3490   11.5641   16.4561 C   0  0  0  0  0  0  0  0  0  0  0  0
   43.4030   10.7932   16.9862 C   0  0  0  0  0  0  0  0  0  0  0  0
   43.1722    9.4872   17.4439 C   0  0  0  0  0  0  0  0  0  0  0  0
   41.8900    8.9308   17.3461 C   0  0  0  0  0  0  0  0  0  0  0  0
   40.8226    9.6791   16.8158 C   0  0  0  0  0  0  0  0  0  0  0  0
   41.0519   11.0006   16.3790 C   0  0  0  0  0  0  0  0  0  0  0  0
   39.5834    9.0259   16.8207 N   0  0  0  0  0  0  0  0  0  0  0  0
   38.6466    9.2456   15.7403 C   0  0  0  0  0  0  0  0  0  0  0  0
   39.1570    8.6824   14.3907 C   0  0  0  0  0  0  0  0  0  0  0  0
   39.0166    7.1479   14.3104 C   0  0  0  0  0  0  0  0  0  0  0  0
   37.6220    6.7818   14.5911 N   0  0  0  0  0  0  0  0  0  0  0  0
   37.2376    7.1334   15.9631 C   0  0  0  0  0  0  0  0  0  0  0  0
   37.2651    8.6656   16.0961 C   0  0  0  0  0  0  0  0  0  0  0  0
   36.7749    6.3149   13.6416 C   0  0  0  0  0  0  0  0  0  0  0  0
   37.1363    6.0512   12.4960 O   0  0  0  0  0  0  0  0  0  0  0  0
   35.2965    6.1223   13.9862 C   0  0  0  0  0  0  0  0  0  0  0  0
   40.1563   15.8982   14.3173 H   0  0  0  0  0  0  0  0  0  0  0  0
   41.1768   17.2255   14.8549 H   0  0  0  0  0  0  0  0  0  0  0  0
   44.3968   11.2077   17.0474 H   0  0  0  0  0  0  0  0  0  0  0  0
   43.9829    8.9067   17.8579 H   0  0  0  0  0  0  0  0  0  0  0  0
   41.7285    7.9227   17.7010 H   0  0  0  0  0  0  0  0  0  0  0  0
   40.2327   11.5957   16.0070 H   0  0  0  0  0  0  0  0  0  0  0  0
   39.5796    8.0885   17.1971 H   0  0  0  0  0  0  0  0  0  0  0  0
   38.5485   10.3173   15.6940 H   0  0  0  0  0  0  0  0  0  0  0  0
   40.1915    8.9735   14.2109 H   0  0  0  0  0  0  0  0  0  0  0  0
   38.5771    9.1271   13.5802 H   0  0  0  0  0  0  0  0  0  0  0  0
   39.6734    6.6697   15.0386 H   0  0  0  0  0  0  0  0  0  0  0  0
   39.3535    6.7971   13.3334 H   0  0  0  0  0  0  0  0  0  0  0  0
   36.2607    6.7498   16.2557 H   0  0  0  0  0  0  0  0  0  0  0  0
   37.9428    6.6800   16.6603 H   0  0  0  0  0  0  0  0  0  0  0  0
   36.5362    9.0893   15.4087 H   0  0  0  0  0  0  0  0  0  0  0  0
   36.9642    8.9710   17.0988 H   0  0  0  0  0  0  0  0  0  0  0  0
   35.1722    5.3245   14.7172 H   0  0  0  0  0  0  0  0  0  0  0  0
   34.7269    5.8524   13.0971 H   0  0  0  0  0  0  0  0  0  0  0  0
   34.8710    7.0427   14.3846 H   0  0  0  0  0  0  0  0  0  0  0  0
  1  2  2  0
  2  3  1  0
  2  4  1  0
  4  5  1  0
  4 31  1  0
  4 32  1  0
  5  6  1  0
  6 11  2  0
  6  7  1  0
  7  8  1  0
  7  9  2  0
  9 10  1  0
  9 15  1  0
 10 11  1  0
 11 12  1  0
 12 13  2  0
 12 14  1  0
 15 20  1  0
 15 16  2  0
 16 17  1  0
 16 33  1  0
 17 18  2  0
 17 34  1  0
 18 19  1  0
 18 35  1  0
 19 20  2  0
 19 21  1  0
 20 36  1  0
 21 22  1  0
 21 37  1  0
 22 27  1  0
 22 23  1  0
 22 38  1  0
 23 24  1  0
 23 39  1  0
 23 40  1  0
 24 25  1  0
 24 41  1  0
 24 42  1  0
 25 26  1  0
 25 28  1  0
 26 27  1  0
 26 43  1  0
 26 44  1  0
 27 45  1  0
 27 46  1  0
 28 29  2  0
 28 30  1  0
 30 47  1  0
 30 48  1  0
 30 49  1  0
M  CHG  2   3  -1  14  -1
M  END
>  <s_m_entry_id>  (1) 
482

>  <i_f3d_flags>  (1) 
0

>  <r_epik_Ionization_Penalty>  (1) 
  0.0007

>  <r_epik_State_Penalty>  (1) 
  0.0004

>  <i_epik_Tot_Q>  (1) 
-2

>  <s_m_job_name>  (1) 
glide-dock_SP_ptp1b_core_cons

>  <r_i_docking_score>  (1) 
-7.45659525095821

>  <r_i_glide_gscore>  (1) 
-7.45699525095821

>  <r_i_glide_emodel>  (1) 
-100.985144000008

>  <index_string>  (1) 
7:0:0

$$$$
