20:0:0
     RDKit          3D

 48 51  0  0  1  0  0  0  0  0999 V2000
    5.5750   -0.6510   16.3950 C   0  0  0  0  0  0  0  0  0  0  0  0
    4.2870   -1.0520   16.2410 N   0  0  0  0  0  0  0  0  0  0  0  0
    3.8470   -0.3120   15.2090 C   0  0  0  0  0  0  0  0  0  0  0  0
    2.5740   -0.3390   14.6460 C   0  0  0  0  0  0  0  0  0  0  0  0
    1.5710   -1.2240   15.1660 N   0  0  0  0  0  0  0  0  0  0  0  0
    2.3270    0.4990   13.5950 N   0  0  0  0  0  0  0  0  0  0  0  0
    3.2830    1.3460   13.0970 C   0  0  0  0  0  0  0  0  0  0  0  0
    4.5620    1.3520   13.6850 C   0  0  0  0  0  0  0  0  0  0  0  0
    4.7790    0.5120   14.7250 N   0  0  0  0  0  0  0  0  0  0  0  0
    5.8880    0.3250   15.4510 C   0  0  0  0  0  0  0  0  0  0  0  0
    2.9690    2.2350   11.9570 C   0  0  0  0  0  0  0  0  0  0  0  0
    3.9620    2.5610   11.0260 C   0  0  0  0  0  0  0  0  0  0  0  0
    3.6740    3.3990    9.9480 C   0  0  0  0  0  0  0  0  0  0  0  0
    2.3880    3.9230    9.7860 C   0  0  0  0  0  0  0  0  0  0  0  0
    2.1480    4.7350    8.7260 F   0  0  0  0  0  0  0  0  0  0  0  0
    1.3740    3.6080   10.7140 C   0  0  0  0  0  0  0  0  0  0  0  0
    1.6810    2.7640   11.7920 C   0  0  0  0  0  0  0  0  0  0  0  0
   -0.0010    4.1390   10.5850 C   0  0  0  0  0  0  0  0  0  0  0  0
   -0.4740    4.9230   11.4490 O   0  0  0  0  0  0  0  0  0  0  0  0
   -0.8130    3.7650    9.4750 N   0  0  0  0  0  0  0  0  0  0  0  0
    0.2200   -1.3790   14.7090 C   0  0  0  0  0  0  0  0  0  0  0  0
   -0.4190   -2.6020   14.9230 C   0  0  0  0  0  0  0  0  0  0  0  0
   -1.7330   -2.7980   14.4960 C   0  0  0  0  0  0  0  0  0  0  0  0
   -2.4300   -1.7670   13.8440 C   0  0  0  0  0  0  0  0  0  0  0  0
   -1.7960   -0.5360   13.6240 C   0  0  0  0  0  0  0  0  0  0  0  0
   -0.4720   -0.3480   14.0590 C   0  0  0  0  0  0  0  0  0  0  0  0
   -3.7470   -1.9470   13.4080 O   0  0  0  0  0  0  0  0  0  0  0  0
   -4.2200   -3.1740   12.8700 C   0  0  0  0  0  0  0  0  0  0  0  0
   -2.4990    0.4840   12.9740 O   0  0  0  0  0  0  0  0  0  0  0  0
   -1.9040    1.3300   12.0010 C   0  0  0  0  0  0  0  0  0  0  0  0
    6.2698   -1.0398   17.1540 H   0  0  0  0  0  0  0  0  0  0  0  0
    1.8540   -1.8167   15.9594 H   0  0  0  0  0  0  0  0  0  0  0  0
    5.3568    2.0153   13.3131 H   0  0  0  0  0  0  0  0  0  0  0  0
    6.8528    0.8387   15.3272 H   0  0  0  0  0  0  0  0  0  0  0  0
    4.9768    2.1536   11.1450 H   0  0  0  0  0  0  0  0  0  0  0  0
    4.4623    3.6484    9.2225 H   0  0  0  0  0  0  0  0  0  0  0  0
    0.8967    2.5127   12.5212 H   0  0  0  0  0  0  0  0  0  0  0  0
   -1.7697    4.1366    9.3884 H   0  0  0  0  0  0  0  0  0  0  0  0
   -0.4431    3.1231    8.7594 H   0  0  0  0  0  0  0  0  0  0  0  0
    0.1172   -3.4167   15.4318 H   0  0  0  0  0  0  0  0  0  0  0  0
   -2.2261   -3.7656   14.6710 H   0  0  0  0  0  0  0  0  0  0  0  0
    0.0255    0.6179   13.8874 H   0  0  0  0  0  0  0  0  0  0  0  0
   -4.4833   -3.8571   13.6910 H   0  0  0  0  0  0  0  0  0  0  0  0
   -5.1095   -2.9844   12.2512 H   0  0  0  0  0  0  0  0  0  0  0  0
   -3.4334   -3.6305   12.2512 H   0  0  0  0  0  0  0  0  0  0  0  0
   -1.3416    2.1297   12.5051 H   0  0  0  0  0  0  0  0  0  0  0  0
   -1.2201    0.7411   11.3721 H   0  0  0  0  0  0  0  0  0  0  0  0
   -2.6894    1.7745   11.3721 H   0  0  0  0  0  0  0  0  0  0  0  0
  1  2  1  0
  1 10  2  0
  2  3  2  0
  3  4  1  0
  3  9  1  0
  4  5  1  0
  4  6  2  0
  5 21  1  0
  6  7  1  0
  7  8  2  0
  7 11  1  0
  8  9  1  0
  9 10  1  0
 11 12  2  0
 11 17  1  0
 12 13  1  0
 13 14  2  0
 14 16  1  0
 14 15  1  0
 16 17  2  0
 16 18  1  0
 18 19  2  0
 18 20  1  0
 21 22  2  0
 21 26  1  0
 22 23  1  0
 23 24  2  0
 24 25  1  0
 24 27  1  0
 25 26  2  0
 25 29  1  0
 27 28  1  0
 29 30  1  0
  1 31  1  0
  5 32  1  0
  8 33  1  0
 10 34  1  0
 12 35  1  0
 13 36  1  0
 17 37  1  0
 20 38  1  0
 20 39  1  0
 22 40  1  0
 23 41  1  0
 26 42  1  0
 28 43  1  0
 28 44  1  0
 28 45  1  0
 30 46  1  0
 30 47  1  0
 30 48  1  0
M  END
>  <s_m_entry_id>  (1) 
724

>  <MODEL>  (1) 
1

>  <REMARK>  (1) 
 VINA RESULT:   -10.992      0.000      0.000
 INTER + INTRA:         -13.132
 INTER:                 -12.462
 INTRA:                  -0.670
 UNBOUND:                 1.073
  Name = /scratch/kmzp800/tmpbu3wtpdx/tmp3u7age6i.pdb
  7 active torsions:
  status: ('A' for Active; 'I' for Inactive)
    1  A    between atoms: N2_5  and  C4_6
    2  A    between atoms: C7_9  and  O1_10
    3  A    between atoms: O1_10  and  C8_11
    4  A    between atoms: C9_12  and  O2_13
    5  A    between atoms: O2_13  and  C10_14
    6  A    between atoms: C12_17  and  C13_18
    7  A    between atoms: C17_23  and  C18_24
                            x       y       z     vdW  Elec       q    Type
                         _______ _______ _______ _____ _____    ______ ____

>  <TORSDO>  (1) 
F 5

>  <grid_id>  (1) 
syk-prepared

>  <grid_path>  (1) 
syk_vina.pdbqt

>  <grid_filename>  (1) 
syk_vina.pdbqt

>  <docking_score>  (1) 
-10.992

>  <compound_name>  (1) 
CHEMBL3265008

>  <index_string>  (1) 
20:0:0

>  <s_m_Source_Path>  (1) 
/projects/mai/users/kmzp800_harry/pmx_colab/docking_jobs/syk/vina_prep/output

>  <s_m_Source_File>  (1) 
ptp1b_docked_conformers.sdf

>  <i_m_Source_File_Index>  (1) 
548

$$$$
