40:0:0
     RDKit          3D

 51 55  0  0  1  0  0  0  0  0999 V2000
   -4.3188   -3.7955   14.6906 C   0  0  0  0  0  0  0  0  0  0  0  0
   -3.6581   -2.8324   13.8069 N   0  0  0  0  0  0  0  0  0  0  0  0
   -4.4738   -1.9475   12.9822 C   0  0  0  0  0  0  0  0  0  0  0  0
   -5.5115   -2.6682   12.1125 C   0  0  0  0  0  0  0  0  0  0  0  0
   -6.2155   -1.6888   11.3661 O   0  0  0  0  0  0  0  0  0  0  0  0
   -2.3542   -2.4194   14.1778 C   0  0  0  0  0  0  0  0  0  0  0  0
   -1.4966   -3.3222   14.8580 C   0  0  0  0  0  0  0  0  0  0  0  0
   -0.1899   -2.9457   15.2125 C   0  0  0  0  0  0  0  0  0  0  0  0
    0.3090   -1.6687   14.8847 C   0  0  0  0  0  0  0  0  0  0  0  0
    1.6237   -1.3606   15.2647 N   0  0  0  0  0  0  0  0  0  0  0  0
    2.5369   -0.4374   14.7286 C   0  0  0  0  0  0  0  0  0  0  0  0
    2.1960    0.3872   13.7590 N   0  0  0  0  0  0  0  0  0  0  0  0
    3.1286    1.2623   13.2423 C   0  0  0  0  0  0  0  0  0  0  0  0
    4.4412    1.2850   13.6802 C   0  0  0  0  0  0  0  0  0  0  0  0
    4.7684    0.4826   14.7198 N   0  0  0  0  0  0  0  0  0  0  0  0
    5.9173    0.3797   15.4742 C   0  0  0  0  0  0  0  0  0  0  0  0
    5.6108   -0.5014   16.4863 C   0  0  0  0  0  0  0  0  0  0  0  0
    4.3697   -1.0614   16.3203 N   0  0  0  0  0  0  0  0  0  0  0  0
    3.8393   -0.4163   15.2876 C   0  0  0  0  0  0  0  0  0  0  0  0
    2.6635    2.2187   12.2092 C   0  0  0  0  0  0  0  0  0  0  0  0
    3.5362    2.6912   11.1910 C   0  0  0  0  0  0  0  0  0  0  0  0
    3.0843    3.5312   10.1475 C   0  0  0  0  0  0  0  0  0  0  0  0
    1.7419    3.9569   10.1022 C   0  0  0  0  0  0  0  0  0  0  0  0
    0.9116    4.7489    9.2436 C   0  0  0  0  0  0  0  0  0  0  0  0
   -0.3134    4.8423    9.7066 N   0  0  0  0  0  0  0  0  0  0  0  0
   -0.3331    4.0993   10.8390 N   0  0  0  0  0  0  0  0  0  0  0  0
    0.8864    3.5285   11.1534 C   0  0  0  0  0  0  0  0  0  0  0  0
    1.3292    2.6803   12.1911 C   0  0  0  0  0  0  0  0  0  0  0  0
   -0.5419   -0.7611   14.2174 C   0  0  0  0  0  0  0  0  0  0  0  0
   -1.8561   -1.1262   13.8808 C   0  0  0  0  0  0  0  0  0  0  0  0
   -3.9471   -3.7275   15.7151 H   0  0  0  0  0  0  0  0  0  0  0  0
   -5.3955   -3.6299   14.7334 H   0  0  0  0  0  0  0  0  0  0  0  0
   -4.1571   -4.8165   14.3408 H   0  0  0  0  0  0  0  0  0  0  0  0
   -3.8403   -1.3785   12.2969 H   0  0  0  0  0  0  0  0  0  0  0  0
   -4.9648   -1.2423   13.6528 H   0  0  0  0  0  0  0  0  0  0  0  0
   -6.2225   -3.2422   12.7017 H   0  0  0  0  0  0  0  0  0  0  0  0
   -5.0158   -3.3567   11.4289 H   0  0  0  0  0  0  0  0  0  0  0  0
   -5.6820   -1.4469   10.6180 H   0  0  0  0  0  0  0  0  0  0  0  0
   -1.8272   -4.3162   15.1168 H   0  0  0  0  0  0  0  0  0  0  0  0
    0.4349   -3.6547   15.7353 H   0  0  0  0  0  0  0  0  0  0  0  0
    2.0398   -2.0216   15.9158 H   0  0  0  0  0  0  0  0  0  0  0  0
    5.1960    1.9796   13.3261 H   0  0  0  0  0  0  0  0  0  0  0  0
    6.7863    0.9695   15.2602 H   0  0  0  0  0  0  0  0  0  0  0  0
    6.1690   -0.7484   17.3546 H   0  0  0  0  0  0  0  0  0  0  0  0
    4.5709    2.3786   11.1713 H   0  0  0  0  0  0  0  0  0  0  0  0
    3.7697    3.8513    9.3735 H   0  0  0  0  0  0  0  0  0  0  0  0
    1.1756    5.2536    8.3276 H   0  0  0  0  0  0  0  0  0  0  0  0
   -1.1794    4.0178   11.3811 H   0  0  0  0  0  0  0  0  0  0  0  0
    0.6401    2.3590   12.9584 H   0  0  0  0  0  0  0  0  0  0  0  0
   -0.2115    0.2359   13.9708 H   0  0  0  0  0  0  0  0  0  0  0  0
   -2.4539   -0.3726   13.3835 H   0  0  0  0  0  0  0  0  0  0  0  0
  1  2  1  0
  1 31  1  0
  1 32  1  0
  1 33  1  0
  2  3  1  0
  2  6  1  0
  3  4  1  0
  3 34  1  0
  3 35  1  0
  4  5  1  0
  4 36  1  0
  4 37  1  0
  5 38  1  0
  6  7  2  0
  6 30  1  0
  7  8  1  0
  7 39  1  0
  8  9  2  0
  8 40  1  0
  9 10  1  0
  9 29  1  0
 10 11  1  0
 10 41  1  0
 11 12  2  0
 11 19  1  0
 12 13  1  0
 13 14  2  0
 13 20  1  0
 14 15  1  0
 14 42  1  0
 15 16  1  0
 15 19  1  0
 16 17  2  0
 16 43  1  0
 17 18  1  0
 17 44  1  0
 18 19  2  0
 20 21  2  0
 20 28  1  0
 21 22  1  0
 21 45  1  0
 22 23  2  0
 22 46  1  0
 23 24  1  0
 23 27  1  0
 24 25  2  0
 24 47  1  0
 25 26  1  0
 26 27  1  0
 26 48  1  0
 27 28  2  0
 28 49  1  0
 29 30  2  0
 29 50  1  0
 30 51  1  0
M  END
>  <s_m_entry_id>  (1) 
1027

>  <IC50[nM]>  (1) 
7.6

>  <s_m_Source_Path>  (1) 
/projects/mai/users/kmzp800_harry/pmx_colab/docking_jobs/syk

>  <s_m_Source_File>  (1) 
tnks2_lig.sdf

>  <i_m_Source_File_Index>  (1) 
41

>  <s_m_job_name>  (1) 
glide-dock_SP_tnks2_core_const

>  <r_i_docking_score>  (1) 
-7.04147352670355

>  <r_i_glide_gscore>  (1) 
-7.04147352670355

>  <r_i_glide_emodel>  (1) 
-48.6445037257504

>  <index_string>  (1) 
40:0:0

$$$$
