38:0:0
     RDKit          3D

 54 59  0  0  1  0  0  0  0  0999 V2000
   -7.2352   -1.5960   13.5239 O   0  0  0  0  0  0  0  0  0  0  0  0
   -6.7843   -2.9948   13.5844 S   0  0  0  0  0  0  0  0  0  0  0  0
   -7.7196   -4.0897   13.2922 O   0  0  0  0  0  0  0  0  0  0  0  0
   -6.0246   -3.2865   15.2330 C   0  0  0  0  0  0  0  0  0  0  0  0
   -4.8164   -2.3629   15.4644 C   0  0  0  0  0  0  0  0  0  0  0  0
   -3.9071   -2.2963   14.3163 N   0  0  0  0  0  0  0  0  0  0  0  0
   -4.0222   -3.2897   13.2558 C   0  0  0  0  0  0  0  0  0  0  0  0
   -5.3284   -3.1454   12.4697 C   0  0  0  0  0  0  0  0  0  0  0  0
   -2.5652   -2.0210   14.6100 C   0  0  0  0  0  0  0  0  0  0  0  0
   -1.8136   -2.8089   15.5094 C   0  0  0  0  0  0  0  0  0  0  0  0
   -0.4454   -2.5425   15.7108 C   0  0  0  0  0  0  0  0  0  0  0  0
    0.1976   -1.4935   15.0192 C   0  0  0  0  0  0  0  0  0  0  0  0
    1.5646   -1.3005   15.2876 N   0  0  0  0  0  0  0  0  0  0  0  0
    2.5214   -0.4362   14.7285 C   0  0  0  0  0  0  0  0  0  0  0  0
    2.2000    0.3644   13.7568 N   0  0  0  0  0  0  0  0  0  0  0  0
    3.1254    1.2498   13.2622 C   0  0  0  0  0  0  0  0  0  0  0  0
    4.4332    1.2757   13.6876 C   0  0  0  0  0  0  0  0  0  0  0  0
    4.7662    0.4680   14.7239 N   0  0  0  0  0  0  0  0  0  0  0  0
    5.9099    0.3765   15.4892 C   0  0  0  0  0  0  0  0  0  0  0  0
    5.6007   -0.4929   16.5012 C   0  0  0  0  0  0  0  0  0  0  0  0
    4.3655   -1.0747   16.3226 N   0  0  0  0  0  0  0  0  0  0  0  0
    3.8289   -0.4246   15.2963 C   0  0  0  0  0  0  0  0  0  0  0  0
    2.6215    2.2820   12.3329 C   0  0  0  0  0  0  0  0  0  0  0  0
    1.3232    2.8295   12.4809 C   0  0  0  0  0  0  0  0  0  0  0  0
    0.8690    3.8791   11.6552 C   0  0  0  0  0  0  0  0  0  0  0  0
    1.7045    4.4166   10.6515 C   0  0  0  0  0  0  0  0  0  0  0  0
    1.6413    5.4554    9.6667 C   0  0  0  0  0  0  0  0  0  0  0  0
    2.7495    5.5281    8.9677 N   0  0  0  0  0  0  0  0  0  0  0  0
    3.5515    4.5509    9.4570 N   0  0  0  0  0  0  0  0  0  0  0  0
    2.9938    3.8441   10.5019 C   0  0  0  0  0  0  0  0  0  0  0  0
    3.4553    2.8024   11.3187 C   0  0  0  0  0  0  0  0  0  0  0  0
   -0.5685   -0.7080   14.1232 C   0  0  0  0  0  0  0  0  0  0  0  0
   -1.9322   -0.9737   13.9180 C   0  0  0  0  0  0  0  0  0  0  0  0
   -6.7875   -3.1325   15.9960 H   0  0  0  0  0  0  0  0  0  0  0  0
   -5.7302   -4.3342   15.2862 H   0  0  0  0  0  0  0  0  0  0  0  0
   -4.2986   -2.6649   16.3756 H   0  0  0  0  0  0  0  0  0  0  0  0
   -5.1766   -1.3497   15.6474 H   0  0  0  0  0  0  0  0  0  0  0  0
   -3.1849   -3.1955   12.5629 H   0  0  0  0  0  0  0  0  0  0  0  0
   -3.9515   -4.2861   13.6940 H   0  0  0  0  0  0  0  0  0  0  0  0
   -5.2966   -2.2681   11.8249 H   0  0  0  0  0  0  0  0  0  0  0  0
   -5.4844   -4.0061   11.8208 H   0  0  0  0  0  0  0  0  0  0  0  0
   -2.2695   -3.6329   16.0405 H   0  0  0  0  0  0  0  0  0  0  0  0
    0.1109   -3.1586   16.4039 H   0  0  0  0  0  0  0  0  0  0  0  0
    1.9461   -1.8888   16.0177 H   0  0  0  0  0  0  0  0  0  0  0  0
    5.1773    1.9883   13.3489 H   0  0  0  0  0  0  0  0  0  0  0  0
    6.7652    1.0029   15.2857 H   0  0  0  0  0  0  0  0  0  0  0  0
    6.1252   -0.7359   17.4000 H   0  0  0  0  0  0  0  0  0  0  0  0
    0.6723    2.4621   13.2612 H   0  0  0  0  0  0  0  0  0  0  0  0
   -0.1170    4.2930   11.8063 H   0  0  0  0  0  0  0  0  0  0  0  0
    0.8327    6.1407    9.4581 H   0  0  0  0  0  0  0  0  0  0  0  0
    4.4643    4.3917    9.0610 H   0  0  0  0  0  0  0  0  0  0  0  0
    4.4494    2.4089   11.1689 H   0  0  0  0  0  0  0  0  0  0  0  0
   -0.1543    0.1128   13.5654 H   0  0  0  0  0  0  0  0  0  0  0  0
   -2.4859   -0.3761   13.2093 H   0  0  0  0  0  0  0  0  0  0  0  0
  1  2  2  0
  2  3  2  0
  2  4  1  0
  2  8  1  0
  4  5  1  0
  4 34  1  0
  4 35  1  0
  5  6  1  0
  5 36  1  0
  5 37  1  0
  6  7  1  0
  6  9  1  0
  7  8  1  0
  7 38  1  0
  7 39  1  0
  8 40  1  0
  8 41  1  0
  9 10  2  0
  9 33  1  0
 10 11  1  0
 10 42  1  0
 11 12  2  0
 11 43  1  0
 12 13  1  0
 12 32  1  0
 13 14  1  0
 13 44  1  0
 14 15  2  0
 14 22  1  0
 15 16  1  0
 16 17  2  0
 16 23  1  0
 17 18  1  0
 17 45  1  0
 18 19  1  0
 18 22  1  0
 19 20  2  0
 19 46  1  0
 20 21  1  0
 20 47  1  0
 21 22  2  0
 23 24  2  0
 23 31  1  0
 24 25  1  0
 24 48  1  0
 25 26  2  0
 25 49  1  0
 26 27  1  0
 26 30  1  0
 27 28  2  0
 27 50  1  0
 28 29  1  0
 29 30  1  0
 29 51  1  0
 30 31  2  0
 31 52  1  0
 32 33  2  0
 32 53  1  0
 33 54  1  0
M  END
>  <s_m_entry_id>  (1) 
1025

>  <IC50[nM]>  (1) 
2.1

>  <s_m_Source_Path>  (1) 
/projects/mai/users/kmzp800_harry/pmx_colab/docking_jobs/syk

>  <s_m_Source_File>  (1) 
tnks2_lig.sdf

>  <i_m_Source_File_Index>  (1) 
39

>  <s_m_job_name>  (1) 
glide-dock_SP_tnks2_core_const

>  <r_i_docking_score>  (1) 
-7.13138518702378

>  <r_i_glide_gscore>  (1) 
-7.13138518702378

>  <r_i_glide_emodel>  (1) 
-51.9093247389147

>  <index_string>  (1) 
38:0:0

$$$$
