42:0:0
     RDKit          3D

 52 57  0  0  1  0  0  0  0  0999 V2000
   -6.1494   -2.5861   15.2033 C   0  0  0  0  0  0  0  0  0  0  0  0
   -4.7211   -2.0658   15.4300 C   0  0  0  0  0  0  0  0  0  0  0  0
   -3.8423   -2.5088   14.3516 N   0  0  0  0  0  0  0  0  0  0  0  0
   -4.3590   -2.2849   13.0039 C   0  0  0  0  0  0  0  0  0  0  0  0
   -5.8026   -2.7949   12.8832 C   0  0  0  0  0  0  0  0  0  0  0  0
   -6.5965   -2.1943   13.9050 O   0  0  0  0  0  0  0  0  0  0  0  0
   -2.4976   -2.1749   14.5730 C   0  0  0  0  0  0  0  0  0  0  0  0
   -1.7128   -2.9775   15.4256 C   0  0  0  0  0  0  0  0  0  0  0  0
   -0.3571   -2.6652   15.6482 C   0  0  0  0  0  0  0  0  0  0  0  0
    0.2397   -1.5455   15.0295 C   0  0  0  0  0  0  0  0  0  0  0  0
    1.5951   -1.3017   15.3053 N   0  0  0  0  0  0  0  0  0  0  0  0
    2.5331   -0.4272   14.7286 C   0  0  0  0  0  0  0  0  0  0  0  0
    2.2010    0.3686   13.7453 N   0  0  0  0  0  0  0  0  0  0  0  0
    3.1415    1.2477   13.2388 C   0  0  0  0  0  0  0  0  0  0  0  0
    4.4473    1.2741   13.6759 C   0  0  0  0  0  0  0  0  0  0  0  0
    4.7712    0.4787   14.7214 N   0  0  0  0  0  0  0  0  0  0  0  0
    5.9116    0.3833   15.4906 C   0  0  0  0  0  0  0  0  0  0  0  0
    5.6017   -0.4943   16.4962 C   0  0  0  0  0  0  0  0  0  0  0  0
    4.3630   -1.0634   16.3183 N   0  0  0  0  0  0  0  0  0  0  0  0
    3.8388   -0.4145   15.2863 C   0  0  0  0  0  0  0  0  0  0  0  0
    2.6677    2.2231   12.2239 C   0  0  0  0  0  0  0  0  0  0  0  0
    3.5491    2.7407   11.2394 C   0  0  0  0  0  0  0  0  0  0  0  0
    3.1131    3.6551   10.2587 C   0  0  0  0  0  0  0  0  0  0  0  0
    1.7751    4.1024   10.2383 C   0  0  0  0  0  0  0  0  0  0  0  0
    0.9700    4.9821    9.4440 C   0  0  0  0  0  0  0  0  0  0  0  0
   -0.2648    5.0376    9.8832 N   0  0  0  0  0  0  0  0  0  0  0  0
   -0.3027    4.2166   10.9634 N   0  0  0  0  0  0  0  0  0  0  0  0
    0.9048    3.6019   11.2414 C   0  0  0  0  0  0  0  0  0  0  0  0
    1.3307    2.6843   12.2183 C   0  0  0  0  0  0  0  0  0  0  0  0
   -0.5612   -0.7273   14.2024 C   0  0  0  0  0  0  0  0  0  0  0  0
   -1.9111   -1.0387   13.9771 C   0  0  0  0  0  0  0  0  0  0  0  0
   -6.8246   -2.1824   15.9598 H   0  0  0  0  0  0  0  0  0  0  0  0
   -6.1820   -3.6735   15.3002 H   0  0  0  0  0  0  0  0  0  0  0  0
   -4.3484   -2.4265   16.3907 H   0  0  0  0  0  0  0  0  0  0  0  0
   -4.7205   -0.9765   15.4780 H   0  0  0  0  0  0  0  0  0  0  0  0
   -4.3310   -1.2270   12.7504 H   0  0  0  0  0  0  0  0  0  0  0  0
   -3.7288   -2.8062   12.2859 H   0  0  0  0  0  0  0  0  0  0  0  0
   -6.2103   -2.5258   11.9088 H   0  0  0  0  0  0  0  0  0  0  0  0
   -5.8413   -3.8843   12.9525 H   0  0  0  0  0  0  0  0  0  0  0  0
   -2.1433   -3.8430   15.9089 H   0  0  0  0  0  0  0  0  0  0  0  0
    0.2248   -3.2986   16.3036 H   0  0  0  0  0  0  0  0  0  0  0  0
    1.9996   -1.8928   16.0209 H   0  0  0  0  0  0  0  0  0  0  0  0
    5.2016    1.9712   13.3289 H   0  0  0  0  0  0  0  0  0  0  0  0
    6.7687    1.0079   15.2897 H   0  0  0  0  0  0  0  0  0  0  0  0
    6.1236   -0.7365   17.3967 H   0  0  0  0  0  0  0  0  0  0  0  0
    4.5770    2.4118   11.2084 H   0  0  0  0  0  0  0  0  0  0  0  0
    3.8066    4.0141    9.5131 H   0  0  0  0  0  0  0  0  0  0  0  0
    1.2568    5.5666    8.5824 H   0  0  0  0  0  0  0  0  0  0  0  0
   -1.1588    4.1042   11.4860 H   0  0  0  0  0  0  0  0  0  0  0  0
    0.6316    2.3323   12.9611 H   0  0  0  0  0  0  0  0  0  0  0  0
   -0.1831    0.1608   13.7279 H   0  0  0  0  0  0  0  0  0  0  0  0
   -2.4771   -0.3831   13.3356 H   0  0  0  0  0  0  0  0  0  0  0  0
  1  2  1  0
  1  6  1  0
  1 32  1  0
  1 33  1  0
  2  3  1  0
  2 34  1  0
  2 35  1  0
  3  4  1  0
  3  7  1  0
  4  5  1  0
  4 36  1  0
  4 37  1  0
  5  6  1  0
  5 38  1  0
  5 39  1  0
  7  8  2  0
  7 31  1  0
  8  9  1  0
  8 40  1  0
  9 10  2  0
  9 41  1  0
 10 11  1  0
 10 30  1  0
 11 12  1  0
 11 42  1  0
 12 13  2  0
 12 20  1  0
 13 14  1  0
 14 15  2  0
 14 21  1  0
 15 16  1  0
 15 43  1  0
 16 17  1  0
 16 20  1  0
 17 18  2  0
 17 44  1  0
 18 19  1  0
 18 45  1  0
 19 20  2  0
 21 22  2  0
 21 29  1  0
 22 23  1  0
 22 46  1  0
 23 24  2  0
 23 47  1  0
 24 25  1  0
 24 28  1  0
 25 26  2  0
 25 48  1  0
 26 27  1  0
 27 28  1  0
 27 49  1  0
 28 29  2  0
 29 50  1  0
 30 31  2  0
 30 51  1  0
 31 52  1  0
M  END
>  <s_m_entry_id>  (1) 
1029

>  <IC50[nM]>  (1) 
10000

>  <s_m_Source_Path>  (1) 
/projects/mai/users/kmzp800_harry/pmx_colab/docking_jobs/syk

>  <s_m_Source_File>  (1) 
tnks2_lig.sdf

>  <i_m_Source_File_Index>  (1) 
43

>  <s_m_job_name>  (1) 
glide-dock_SP_tnks2_core_const

>  <r_i_docking_score>  (1) 
-7.03339253006377

>  <r_i_glide_gscore>  (1) 
-7.03339253006377

>  <r_i_glide_emodel>  (1) 
-48.7703832870253

>  <index_string>  (1) 
42:0:0

$$$$
