8:0:0
     RDKit          3D

 43 46  0  0  1  0  0  0  0  0999 V2000
   34.5400   35.9310   20.5510 C   0  0  0  0  0  0  0  0  0  0  0  0
   34.6300   37.1400   21.2570 C   0  0  0  0  0  0  0  0  0  0  0  0
   34.7300   37.1230   22.6460 C   0  0  0  0  0  0  0  0  0  0  0  0
   34.8300   38.2980   23.3860 C   0  0  0  0  0  0  0  0  0  0  0  0
   34.9260   38.2320   24.7400 N   0  0  0  0  0  0  0  0  0  0  0  0
   34.9270   37.0330   25.3910 C   0  0  0  0  0  0  0  0  0  0  0  0
   35.0290   36.9750   26.8180 N   0  0  0  0  0  0  0  0  0  0  0  0
   34.8300   35.8760   24.6810 N   0  0  0  0  0  0  0  0  0  0  0  0
   34.7320   35.8960   23.3260 C   0  0  0  0  0  0  0  0  0  0  0  0
   34.6330   34.7350   22.6280 N   0  0  0  0  0  0  0  0  0  0  0  0
   34.5340   34.7250   21.2700 C   0  0  0  0  0  0  0  0  0  0  0  0
   34.4390   33.6260   20.6620 O   0  0  0  0  0  0  0  0  0  0  0  0
   35.1380   38.1390   27.6930 C   0  0  0  0  0  0  0  0  0  0  0  0
   35.5720   37.7290   29.1010 C   0  0  0  0  0  0  0  0  0  0  0  0
   35.4830   38.9460   30.0220 C   0  0  0  0  0  0  0  0  0  0  0  0
   34.1640   39.4360   30.0450 O   0  0  0  0  0  0  0  0  0  0  0  0
   33.9270   40.0190   28.7880 C   0  0  0  0  0  0  0  0  0  0  0  0
   33.8290   38.9310   27.7180 C   0  0  0  0  0  0  0  0  0  0  0  0
   34.4150   35.9040   19.1530 O   0  0  0  0  0  0  0  0  0  0  0  0
   36.2470   35.6190   15.9590 C   0  0  0  0  0  0  0  0  0  0  0  0
   35.2100   35.6720   16.8930 C   0  0  0  0  0  0  0  0  0  0  0  0
   35.4870   35.8670   18.2510 C   0  0  0  0  0  0  0  0  0  0  0  0
   36.8270   35.9720   18.6740 C   0  0  0  0  0  0  0  0  0  0  0  0
   37.1390   36.0740   19.9890 F   0  0  0  0  0  0  0  0  0  0  0  0
   37.8620   35.9160   17.7350 C   0  0  0  0  0  0  0  0  0  0  0  0
   37.5730   35.7490   16.3780 C   0  0  0  0  0  0  0  0  0  0  0  0
   38.5780   35.6970   15.4730 F   0  0  0  0  0  0  0  0  0  0  0  0
   34.6216   38.0975   20.7156 H   0  0  0  0  0  0  0  0  0  0  0  0
   34.8313   39.2736   22.8779 H   0  0  0  0  0  0  0  0  0  0  0  0
   35.0252   36.0444   27.2595 H   0  0  0  0  0  0  0  0  0  0  0  0
   34.6328   33.8403   23.1384 H   0  0  0  0  0  0  0  0  0  0  0  0
   35.9176   38.7995   27.2856 H   0  0  0  0  0  0  0  0  0  0  0  0
   34.9096   36.9342   29.4746 H   0  0  0  0  0  0  0  0  0  0  0  0
   36.6061   37.3548   29.0775 H   0  0  0  0  0  0  0  0  0  0  0  0
   35.7815   38.6552   31.0400 H   0  0  0  0  0  0  0  0  0  0  0  0
   36.1543   39.7327   29.6471 H   0  0  0  0  0  0  0  0  0  0  0  0
   32.9839   40.5843   28.8204 H   0  0  0  0  0  0  0  0  0  0  0  0
   34.7585   40.6953   28.5407 H   0  0  0  0  0  0  0  0  0  0  0  0
   33.6593   39.3945   26.7349 H   0  0  0  0  0  0  0  0  0  0  0  0
   32.9907   38.2571   27.9483 H   0  0  0  0  0  0  0  0  0  0  0  0
   36.0193   35.4748   14.8925 H   0  0  0  0  0  0  0  0  0  0  0  0
   34.1680   35.5597   16.5589 H   0  0  0  0  0  0  0  0  0  0  0  0
   38.9074   36.0037   18.0659 H   0  0  0  0  0  0  0  0  0  0  0  0
  1  2  2  0
  1 11  1  0
  1 19  1  0
  2  3  1  0
  3  9  2  0
  3  4  1  0
  4  5  2  0
  5  6  1  0
  6  7  1  0
  6  8  2  0
  7 13  1  0
  8  9  1  0
  9 10  1  0
 10 11  1  0
 11 12  2  0
 13 18  1  0
 13 14  1  0
 14 15  1  0
 15 16  1  0
 16 17  1  0
 17 18  1  0
 19 22  1  0
 20 26  2  0
 20 21  1  0
 21 22  2  0
 22 23  1  0
 23 24  1  0
 23 25  2  0
 25 26  1  0
 26 27  1  0
  2 28  1  0
  4 29  1  0
  7 30  1  0
 10 31  1  0
 13 32  1  0
 14 33  1  0
 14 34  1  0
 15 35  1  0
 15 36  1  0
 17 37  1  0
 17 38  1  0
 18 39  1  0
 18 40  1  0
 20 41  1  0
 21 42  1  0
 25 43  1  0
M  END
>  <s_m_entry_id>  (1) 
58

>  <MODEL>  (1) 
7

>  <REMARK>  (1) 
 VINA RESULT:    -9.947      1.907      2.364
 INTER + INTRA:          -9.004
 INTER:                  -9.130
 INTRA:                   0.127
 UNBOUND:                 2.688
  Name = /scratch/kmzp800/tmpgjrv6qg7/tmpn4b648xv.pdb
  3 active torsions:
  status: ('A' for Active; 'I' for Inactive)
    1  A    between atoms: C3_3  and  O1_4
    2  A    between atoms: O1_4  and  C4_5
    3  A    between atoms: N2_11  and  C9_12
                            x       y       z     vdW  Elec       q    Type
                         _______ _______ _______ _____ _____    ______ ____

>  <TORSDO>  (1) 
F 3

>  <grid_id>  (1) 
p38-prepared

>  <grid_path>  (1) 
/projects/mai/users/kmzp800_harry/pmx_colab/docking_jobs/p38/vina_docking/input_files/p38_vina.pdbqt

>  <grid_filename>  (1) 
p38_vina.pdbqt

>  <docking_score>  (1) 
-9.947

>  <compound_name>  (1) 
lig_p38a_2k

>  <index_string>  (1) 
8:0:0

$$$$
