16:0:0
     RDKit          3D

 65 70  0  0  1  0  0  0  0  0999 V2000
   -4.5534   -3.1118   15.5924 C   0  0  0  0  0  0  0  0  0  0  0  0
   -3.9025   -2.2242   14.6943 O   0  0  0  0  0  0  0  0  0  0  0  0
   -2.5397   -2.0568   14.8255 C   0  0  0  0  0  0  0  0  0  0  0  0
   -1.7401   -2.8230   15.7041 C   0  0  0  0  0  0  0  0  0  0  0  0
   -0.3645   -2.5787   15.8171 C   0  0  0  0  0  0  0  0  0  0  0  0
    0.2481   -1.5611   15.0657 C   0  0  0  0  0  0  0  0  0  0  0  0
    1.6163   -1.3390   15.2923 N   0  0  0  0  0  0  0  0  0  0  0  0
    2.5318   -0.4317   14.7279 C   0  0  0  0  0  0  0  0  0  0  0  0
    2.1997    0.3666   13.7475 N   0  0  0  0  0  0  0  0  0  0  0  0
    3.1264    1.2464   13.2202 C   0  0  0  0  0  0  0  0  0  0  0  0
    4.4279    1.2909   13.6787 C   0  0  0  0  0  0  0  0  0  0  0  0
    4.7671    0.4831   14.7162 N   0  0  0  0  0  0  0  0  0  0  0  0
    5.9176    0.3716   15.4765 C   0  0  0  0  0  0  0  0  0  0  0  0
    5.6148   -0.4990   16.4912 C   0  0  0  0  0  0  0  0  0  0  0  0
    4.3640   -1.0540   16.3210 N   0  0  0  0  0  0  0  0  0  0  0  0
    3.8360   -0.4140   15.2871 C   0  0  0  0  0  0  0  0  0  0  0  0
    2.6466    2.1547   12.1428 C   0  0  0  0  0  0  0  0  0  0  0  0
    3.5676    2.6729   11.1895 C   0  0  0  0  0  0  0  0  0  0  0  0
    3.1558    3.5036   10.1340 C   0  0  0  0  0  0  0  0  0  0  0  0
    1.8014    3.8567   10.0353 C   0  0  0  0  0  0  0  0  0  0  0  0
    0.8782    3.3985   11.0051 C   0  0  0  0  0  0  0  0  0  0  0  0
    1.2939    2.5547   12.0603 C   0  0  0  0  0  0  0  0  0  0  0  0
   -0.5643    3.7712   10.8737 C   0  0  0  0  0  0  0  0  0  0  0  0
   -1.1114    3.7047    9.7734 O   0  0  0  0  0  0  0  0  0  0  0  0
   -1.1401    4.2002   12.0113 N   0  0  0  0  0  0  0  0  0  0  0  0
   -2.4453    4.7217   12.2171 C   0  0  0  0  0  0  0  0  0  0  0  0
   -3.5208    4.5213   11.3177 C   0  0  0  0  0  0  0  0  0  0  0  0
   -4.7780    5.1020   11.5764 C   0  0  0  0  0  0  0  0  0  0  0  0
   -4.9911    5.8607   12.7452 C   0  0  0  0  0  0  0  0  0  0  0  0
   -3.9362    6.0040   13.6686 C   0  0  0  0  0  0  0  0  0  0  0  0
   -2.6645    5.4652   13.3981 C   0  0  0  0  0  0  0  0  0  0  0  0
   -6.2711    6.5054   13.0001 C   0  0  0  0  0  0  0  0  0  0  0  0
   -7.5335    6.0026   13.1497 C   0  0  0  0  0  0  0  0  0  0  0  0
   -8.3260    7.1604   13.4118 C   0  0  0  0  0  0  0  0  0  0  0  0
   -7.6228    8.2870   13.3990 N   0  0  0  0  0  0  0  0  0  0  0  0
   -6.3664    7.8745   13.1298 N   0  0  0  0  0  0  0  0  0  0  0  0
   -0.5455   -0.8127   14.1687 C   0  0  0  0  0  0  0  0  0  0  0  0
   -1.9319   -1.0539   14.0395 C   0  0  0  0  0  0  0  0  0  0  0  0
   -2.7432   -0.3222   13.1960 O   0  0  0  0  0  0  0  0  0  0  0  0
   -2.1603    0.6845   12.3772 C   0  0  0  0  0  0  0  0  0  0  0  0
   -5.6253   -3.0863   15.3833 H   0  0  0  0  0  0  0  0  0  0  0  0
   -4.2023   -4.1408   15.4817 H   0  0  0  0  0  0  0  0  0  0  0  0
   -4.4079   -2.8008   16.6268 H   0  0  0  0  0  0  0  0  0  0  0  0
   -2.1539   -3.5991   16.3284 H   0  0  0  0  0  0  0  0  0  0  0  0
    0.2105   -3.1717   16.5165 H   0  0  0  0  0  0  0  0  0  0  0  0
    2.0309   -1.8913   16.0362 H   0  0  0  0  0  0  0  0  0  0  0  0
    5.1925    1.9642   13.3103 H   0  0  0  0  0  0  0  0  0  0  0  0
    6.7814    0.9755   15.2563 H   0  0  0  0  0  0  0  0  0  0  0  0
    6.1487   -0.7877   17.3747 H   0  0  0  0  0  0  0  0  0  0  0  0
    4.6080    2.3982   11.2423 H   0  0  0  0  0  0  0  0  0  0  0  0
    3.8763    3.8576    9.4068 H   0  0  0  0  0  0  0  0  0  0  0  0
    1.4816    4.4929    9.2208 H   0  0  0  0  0  0  0  0  0  0  0  0
    0.5838    2.1829   12.7880 H   0  0  0  0  0  0  0  0  0  0  0  0
   -0.5196    4.2718   12.8051 H   0  0  0  0  0  0  0  0  0  0  0  0
   -3.4005    3.9467   10.4107 H   0  0  0  0  0  0  0  0  0  0  0  0
   -5.5849    4.9658   10.8694 H   0  0  0  0  0  0  0  0  0  0  0  0
   -4.0930    6.5620   14.5820 H   0  0  0  0  0  0  0  0  0  0  0  0
   -1.8694    5.6137   14.1197 H   0  0  0  0  0  0  0  0  0  0  0  0
   -7.8394    4.9656   13.0995 H   0  0  0  0  0  0  0  0  0  0  0  0
   -9.3895    7.2130   13.5989 H   0  0  0  0  0  0  0  0  0  0  0  0
   -5.6046    8.5304   13.0189 H   0  0  0  0  0  0  0  0  0  0  0  0
   -0.1068   -0.0236   13.5905 H   0  0  0  0  0  0  0  0  0  0  0  0
   -2.9353    1.1455   11.7664 H   0  0  0  0  0  0  0  0  0  0  0  0
   -1.7282    1.4828   12.9834 H   0  0  0  0  0  0  0  0  0  0  0  0
   -1.3987    0.2745   11.7091 H   0  0  0  0  0  0  0  0  0  0  0  0
  1  2  1  0
  1 41  1  0
  1 42  1  0
  1 43  1  0
  2  3  1  0
  3  4  2  0
  3 38  1  0
  4  5  1  0
  4 44  1  0
  5  6  2  0
  5 45  1  0
  6  7  1  0
  6 37  1  0
  7  8  1  0
  7 46  1  0
  8  9  2  0
  8 16  1  0
  9 10  1  0
 10 11  2  0
 10 17  1  0
 11 12  1  0
 11 47  1  0
 12 13  1  0
 12 16  1  0
 13 14  2  0
 13 48  1  0
 14 15  1  0
 14 49  1  0
 15 16  2  0
 17 18  2  0
 17 22  1  0
 18 19  1  0
 18 50  1  0
 19 20  2  0
 19 51  1  0
 20 21  1  0
 20 52  1  0
 21 22  2  0
 21 23  1  0
 22 53  1  0
 23 24  2  0
 23 25  1  0
 25 26  1  0
 25 54  1  0
 26 27  2  0
 26 31  1  0
 27 28  1  0
 27 55  1  0
 28 29  2  0
 28 56  1  0
 29 30  1  0
 29 32  1  0
 30 31  2  0
 30 57  1  0
 31 58  1  0
 32 36  1  0
 32 33  2  0
 33 34  1  0
 33 59  1  0
 34 60  1  0
 34 35  2  0
 35 36  1  0
 36 61  1  0
 37 38  2  0
 37 62  1  0
 38 39  1  0
 39 40  1  0
 40 63  1  0
 40 64  1  0
 40 65  1  0
M  END
>  <s_m_entry_id>  (1) 
1085

>  <IC50[nM]>  (1) 
11.7

>  <s_m_Source_Path>  (1) 
/projects/mai/users/kmzp800_harry/pmx_colab/docking_jobs/syk

>  <s_m_Source_File>  (1) 
tnks2_lig.sdf

>  <i_m_Source_File_Index>  (1) 
18

>  <s_m_job_name>  (1) 
glide-dock_SP_syk_mcs

>  <r_i_docking_score>  (1) 
-7.5260030759549

>  <r_i_glide_gscore>  (1) 
-7.5260030759549

>  <r_i_glide_emodel>  (1) 
-69.6687066641004

>  <index_string>  (1) 
16:0:0

$$$$
