2:0:0
     RDKit          3D

 54 57  0  0  1  0  0  0  0  0999 V2000
   34.3331   35.0933   20.9290 C   0  0  0  0  0  0  0  0  0  0  0  0
   33.9988   38.9886   23.6710 C   0  0  0  0  0  0  0  0  0  0  0  0
   34.7668   37.8964   21.3376 C   0  0  0  0  0  0  0  0  0  0  0  0
   35.1566   37.2499   20.0880 C   0  0  0  0  0  0  0  0  0  0  0  0
   34.1493   37.1115   22.3338 C   0  0  0  0  0  0  0  0  0  0  0  0
   34.9485   39.2689   21.6202 C   0  0  0  0  0  0  0  0  0  0  0  0
   34.9662   35.9243   19.9006 C   0  0  0  0  0  0  0  0  0  0  0  0
   34.5522   39.8198   22.7863 N   0  0  0  0  0  0  0  0  0  0  0  0
   34.1611   33.8847   20.7490 O   0  0  0  0  0  0  0  0  0  0  0  0
   33.9174   35.7216   22.0677 N   0  0  0  0  0  0  0  0  0  0  0  0
   33.7745   37.6891   23.4959 N   0  0  0  0  0  0  0  0  0  0  0  0
   33.6348   39.5493   24.8782 N   0  0  0  0  0  0  0  0  0  0  0  0
   35.5907   37.8740   19.3196 H   0  0  0  0  0  0  0  0  0  0  0  0
   35.3998   39.9468   20.9100 H   0  0  0  0  0  0  0  0  0  0  0  0
   33.7982   40.5419   25.0051 H   0  0  0  0  0  0  0  0  0  0  0  0
   33.1161   34.9420   23.0390 C   0  0  0  0  0  0  0  0  0  0  0  0
   32.5198   35.5856   23.6817 H   0  0  0  0  0  0  0  0  0  0  0  0
   32.3671   34.3850   22.4715 H   0  0  0  0  0  0  0  0  0  0  0  0
   33.9201   33.9503   23.8993 C   0  0  0  0  0  0  0  0  0  0  0  0
   32.9516   33.1602   24.5573 O   0  0  0  0  0  0  0  0  0  0  0  0
   33.3650   32.3110   24.6984 H   0  0  0  0  0  0  0  0  0  0  0  0
   34.8331   34.6052   24.9541 C   0  0  0  0  0  0  0  0  0  0  0  0
   34.3026   35.3779   25.5125 H   0  0  0  0  0  0  0  0  0  0  0  0
   35.1834   33.8707   25.6796 H   0  0  0  0  0  0  0  0  0  0  0  0
   34.5048   33.2793   23.2727 H   0  0  0  0  0  0  0  0  0  0  0  0
   35.9615   35.1719   24.3211 O   0  0  0  0  0  0  0  0  0  0  0  0
   36.4779   34.4669   23.9632 H   0  0  0  0  0  0  0  0  0  0  0  0
   33.3503   38.5301   28.5406 C   0  0  0  0  0  0  0  0  0  0  0  0
   33.9312   39.2217   27.2981 C   0  0  0  0  0  0  0  0  0  0  0  0
   33.1396   38.8285   26.0432 C   0  0  0  0  0  0  0  0  0  0  0  0
   31.6528   39.1209   26.2860 C   0  0  0  0  0  0  0  0  0  0  0  0
   31.1776   38.4579   27.5927 C   0  0  0  0  0  0  0  0  0  0  0  0
   31.9815   38.8853   28.6868 O   0  0  0  0  0  0  0  0  0  0  0  0
   33.4474   37.4468   28.4616 H   0  0  0  0  0  0  0  0  0  0  0  0
   33.8964   38.8403   29.4366 H   0  0  0  0  0  0  0  0  0  0  0  0
   34.9817   38.9506   27.1833 H   0  0  0  0  0  0  0  0  0  0  0  0
   33.8991   40.3042   27.4422 H   0  0  0  0  0  0  0  0  0  0  0  0
   33.2593   37.7520   25.9051 H   0  0  0  0  0  0  0  0  0  0  0  0
   31.4848   40.1978   26.3428 H   0  0  0  0  0  0  0  0  0  0  0  0
   31.0529   38.7595   25.4483 H   0  0  0  0  0  0  0  0  0  0  0  0
   31.1941   37.3720   27.5122 H   0  0  0  0  0  0  0  0  0  0  0  0
   30.1501   38.7490   27.8050 H   0  0  0  0  0  0  0  0  0  0  0  0
   35.2561   35.2678   18.7283 O   0  0  0  0  0  0  0  0  0  0  0  0
   37.9466   36.6542   15.8548 C   0  0  0  0  0  0  0  0  0  0  0  0
   36.6072   36.4487   15.5006 C   0  0  0  0  0  0  0  0  0  0  0  0
   35.7498   35.9139   16.4789 C   0  0  0  0  0  0  0  0  0  0  0  0
   36.1543   35.7656   17.8197 C   0  0  0  0  0  0  0  0  0  0  0  0
   37.5057   35.9792   18.1626 C   0  0  0  0  0  0  0  0  0  0  0  0
   38.4184   36.3496   17.1546 C   0  0  0  0  0  0  0  0  0  0  0  0
   38.7622   37.1869   14.9317 F   0  0  0  0  0  0  0  0  0  0  0  0
   36.2287   36.7500   14.5350 H   0  0  0  0  0  0  0  0  0  0  0  0
   34.7288   35.6695   16.2083 H   0  0  0  0  0  0  0  0  0  0  0  0
   37.9192   35.8562   19.4443 F   0  0  0  0  0  0  0  0  0  0  0  0
   39.4513   36.5340   17.4143 H   0  0  0  0  0  0  0  0  0  0  0  0
  1  7  1  0
  1  9  2  0
  1 10  1  0
  2  8  1  0
  2 11  2  0
  2 12  1  0
  3  4  1  0
  3  5  2  0
  3  6  1  0
  4  7  2  0
  4 13  1  0
  5 10  1  0
  5 11  1  0
  6  8  2  0
  6 14  1  0
  7 43  1  0
 10 16  1  0
 12 15  1  0
 12 30  1  0
 16 17  1  0
 16 18  1  0
 16 19  1  0
 19 20  1  0
 19 22  1  0
 19 25  1  0
 20 21  1  0
 22 23  1  0
 22 24  1  0
 22 26  1  0
 26 27  1  0
 28 29  1  0
 28 33  1  0
 28 34  1  0
 28 35  1  0
 29 30  1  0
 29 36  1  0
 29 37  1  0
 30 31  1  0
 30 38  1  0
 31 32  1  0
 31 39  1  0
 31 40  1  0
 32 33  1  0
 32 41  1  0
 32 42  1  0
 43 47  1  0
 44 45  2  0
 44 49  1  0
 44 50  1  0
 45 46  1  0
 45 51  1  0
 46 47  2  0
 46 52  1  0
 47 48  1  0
 48 49  2  0
 48 53  1  0
 49 54  1  0
M  END
>  <s_m_entry_id>  (1) 
820

>  <s_m_Source_Path>  (1) 
/projects/mai/users/kmzp800_harry/pmx_colab/docking_jobs/p38/glide-dock_SP_p38_mcs_docking_2

>  <s_m_Source_File>  (1) 
glide-dock_SP_p38_mcs_docking_2_pv.maegz

>  <i_m_Source_File_Index>  (1) 
4

>  <s_pdb_PDB_TITLE>  (1) 
MX MODEL

>  <r_i_docking_score>  (1) 
-7.92417063747389

>  <r_i_glide_gscore>  (1) 
-7.92417063747389

>  <r_i_glide_emodel>  (1) 
-50.5971899345768

>  <index_string>  (1) 
2:0:0

$$$$
