5:0:0
     RDKit          3D

 48 51  0  0  1  0  0  0  0  0999 V2000
    6.2010    0.0780   15.8400 C   0  0  0  0  0  0  0  0  0  0  0  0
    5.8350    0.8860   14.8120 N   0  0  0  0  0  0  0  0  0  0  0  0
    4.5530    0.5510   14.5880 C   0  0  0  0  0  0  0  0  0  0  0  0
    3.7060    1.0940   13.6260 C   0  0  0  0  0  0  0  0  0  0  0  0
    4.1710    2.1230   12.7410 N   0  0  0  0  0  0  0  0  0  0  0  0
    2.4290    0.6100   13.5610 N   0  0  0  0  0  0  0  0  0  0  0  0
    1.9770   -0.3730   14.4020 C   0  0  0  0  0  0  0  0  0  0  0  0
    2.8550   -0.9040   15.3660 C   0  0  0  0  0  0  0  0  0  0  0  0
    4.1130   -0.4060   15.4080 N   0  0  0  0  0  0  0  0  0  0  0  0
    5.1310   -0.7310   16.2160 C   0  0  0  0  0  0  0  0  0  0  0  0
    0.5850   -0.8590   14.2880 C   0  0  0  0  0  0  0  0  0  0  0  0
   -0.3530   -0.1350   13.5430 C   0  0  0  0  0  0  0  0  0  0  0  0
   -1.6690   -0.5880   13.4310 C   0  0  0  0  0  0  0  0  0  0  0  0
   -2.0780   -1.7730   14.0590 C   0  0  0  0  0  0  0  0  0  0  0  0
   -1.1340   -2.5030   14.8100 C   0  0  0  0  0  0  0  0  0  0  0  0
   -1.4680   -3.6560   15.4410 F   0  0  0  0  0  0  0  0  0  0  0  0
    0.1820   -2.0450   14.9190 C   0  0  0  0  0  0  0  0  0  0  0  0
   -3.4850   -2.2130   13.9120 C   0  0  0  0  0  0  0  0  0  0  0  0
   -4.2960   -2.0590   14.8630 O   0  0  0  0  0  0  0  0  0  0  0  0
   -3.9470   -2.8110   12.7050 N   0  0  0  0  0  0  0  0  0  0  0  0
    3.4250    2.7780   11.7060 C   0  0  0  0  0  0  0  0  0  0  0  0
    4.0220    3.1980   10.5100 C   0  0  0  0  0  0  0  0  0  0  0  0
    3.2620    3.8320    9.5260 C   0  0  0  0  0  0  0  0  0  0  0  0
    1.8900    4.0560    9.7210 C   0  0  0  0  0  0  0  0  0  0  0  0
    1.2850    3.6370   10.9170 C   0  0  0  0  0  0  0  0  0  0  0  0
    2.0590    3.0000   11.9000 C   0  0  0  0  0  0  0  0  0  0  0  0
    1.1120    4.6900    8.7470 O   0  0  0  0  0  0  0  0  0  0  0  0
    0.8550    6.0870    8.7570 C   0  0  0  0  0  0  0  0  0  0  0  0
   -0.0840    3.8620   11.1050 O   0  0  0  0  0  0  0  0  0  0  0  0
   -1.0450    2.8160   11.0840 C   0  0  0  0  0  0  0  0  0  0  0  0
    7.1966    0.0642   16.3075 H   0  0  0  0  0  0  0  0  0  0  0  0
    5.1484    2.4246   12.8623 H   0  0  0  0  0  0  0  0  0  0  0  0
    2.5308   -1.6941   16.0592 H   0  0  0  0  0  0  0  0  0  0  0  0
    5.1235   -1.4857   17.0162 H   0  0  0  0  0  0  0  0  0  0  0  0
   -0.0515    0.7970   13.0425 H   0  0  0  0  0  0  0  0  0  0  0  0
   -2.3945   -0.0075   12.8423 H   0  0  0  0  0  0  0  0  0  0  0  0
    0.9109   -2.6220   15.5071 H   0  0  0  0  0  0  0  0  0  0  0  0
   -4.9290   -3.1105   12.6217 H   0  0  0  0  0  0  0  0  0  0  0  0
   -3.2992   -2.9440   11.9153 H   0  0  0  0  0  0  0  0  0  0  0  0
    5.0961    3.0270   10.3456 H   0  0  0  0  0  0  0  0  0  0  0  0
    3.7414    4.1584    8.5913 H   0  0  0  0  0  0  0  0  0  0  0  0
    1.5836    2.6711   12.8358 H   0  0  0  0  0  0  0  0  0  0  0  0
    0.7900    6.4404    9.7966 H   0  0  0  0  0  0  0  0  0  0  0  0
    1.6713    6.6137    8.2410 H   0  0  0  0  0  0  0  0  0  0  0  0
   -0.0953    6.2887    8.2410 H   0  0  0  0  0  0  0  0  0  0  0  0
   -1.3034    2.5347   12.1156 H   0  0  0  0  0  0  0  0  0  0  0  0
   -1.9492    3.1593   10.5601 H   0  0  0  0  0  0  0  0  0  0  0  0
   -0.6265    1.9440   10.5601 H   0  0  0  0  0  0  0  0  0  0  0  0
  1 10  2  0
  1  2  1  0
  2  3  2  0
  3  9  1  0
  3  4  1  0
  4  5  1  0
  4  6  2  0
  5 21  1  0
  6  7  1  0
  7  8  2  0
  7 11  1  0
  8  9  1  0
  9 10  1  0
 11 17  1  0
 11 12  2  0
 12 13  1  0
 13 14  2  0
 14 15  1  0
 14 18  1  0
 15 17  2  0
 15 16  1  0
 18 19  2  0
 18 20  1  0
 21 26  1  0
 21 22  2  0
 22 23  1  0
 23 24  2  0
 24 25  1  0
 24 27  1  0
 25 29  1  0
 25 26  2  0
 27 28  1  0
 29 30  1  0
  1 31  1  0
  5 32  1  0
  8 33  1  0
 10 34  1  0
 12 35  1  0
 13 36  1  0
 17 37  1  0
 20 38  1  0
 20 39  1  0
 22 40  1  0
 23 41  1  0
 26 42  1  0
 28 43  1  0
 28 44  1  0
 28 45  1  0
 30 46  1  0
 30 47  1  0
 30 48  1  0
M  END
>  <s_m_entry_id>  (1) 
6

>  <MODEL>  (1) 
1

>  <REMARK>  (1) 
 VINA RESULT:    -9.061      0.000      0.000
 INTER + INTRA:         -12.214
 INTER:                 -11.709
 INTRA:                  -0.505
 UNBOUND:                -0.505
  Name = /scratch/kmzp800/tmpq0q87mve/tmpd3sq233z.pdb
  7 active torsions:
  status: ('A' for Active; 'I' for Inactive)
    1  A    between atoms: N2_5  and  C4_6
    2  A    between atoms: C7_9  and  O1_10
    3  A    between atoms: O1_10  and  C8_11
    4  A    between atoms: C9_12  and  O2_13
    5  A    between atoms: O2_13  and  C10_14
    6  A    between atoms: C12_17  and  C13_18
    7  A    between atoms: C16_21  and  C17_22
                            x       y       z     vdW  Elec       q    Type
                         _______ _______ _______ _____ _____    ______ ____

>  <TORSDO>  (1) 
F 5

>  <grid_id>  (1) 
syk-prepared

>  <grid_path>  (1) 
syk_vina.pdbqt

>  <grid_filename>  (1) 
syk_vina.pdbqt

>  <docking_score>  (1) 
-9.061

>  <compound_name>  (1) 
CHEMBL3265012

>  <index_string>  (1) 
5:0:0

>  <s_m_Source_Path>  (1) 
/projects/mai/users/kmzp800_harry/pmx_colab/docking_jobs/syk/vina_prep/output

>  <s_m_Source_File>  (1) 
ptp1b_docked_conformers.sdf

>  <i_m_Source_File_Index>  (1) 
6

$$$$
