14:0:0
     RDKit          3D

 63 67  0  0  1  0  0  0  0  0999 V2000
   -3.8631    4.2532    8.6815 C   0  0  0  0  0  0  0  0  0  0  0  0
   -3.2577    4.4046    9.9562 O   0  0  0  0  0  0  0  0  0  0  0  0
   -1.8825    4.3362   10.0430 C   0  0  0  0  0  0  0  0  0  0  0  0
   -1.0364    4.0726    8.9353 C   0  0  0  0  0  0  0  0  0  0  0  0
    0.3596    4.0029    9.0971 C   0  0  0  0  0  0  0  0  0  0  0  0
    0.9270    4.1551   10.3753 C   0  0  0  0  0  0  0  0  0  0  0  0
    2.3123    4.0296   10.5380 N   0  0  0  0  0  0  0  0  0  0  0  0
    2.9676    3.4198   11.6173 C   0  0  0  0  0  0  0  0  0  0  0  0
    2.3806    2.4173   12.2047 N   0  0  0  0  0  0  0  0  0  0  0  0
    2.9920    1.7800   13.2589 C   0  0  0  0  0  0  0  0  0  0  0  0
    4.2149    2.1848   13.7449 C   0  0  0  0  0  0  0  0  0  0  0  0
    4.8238    3.2347   13.1325 N   0  0  0  0  0  0  0  0  0  0  0  0
    6.0299    3.8595   13.3749 C   0  0  0  0  0  0  0  0  0  0  0  0
    6.1771    4.8045   12.3963 C   0  0  0  0  0  0  0  0  0  0  0  0
    5.0554    4.8536   11.5785 N   0  0  0  0  0  0  0  0  0  0  0  0
    4.2443    3.8935   12.0232 C   0  0  0  0  0  0  0  0  0  0  0  0
    2.2527    0.6199   13.8169 C   0  0  0  0  0  0  0  0  0  0  0  0
    2.9225   -0.3962   14.5375 C   0  0  0  0  0  0  0  0  0  0  0  0
    2.2209   -1.4835   15.0826 C   0  0  0  0  0  0  0  0  0  0  0  0
    0.8388   -1.6047   14.8861 C   0  0  0  0  0  0  0  0  0  0  0  0
    0.1391   -0.6188   14.1581 C   0  0  0  0  0  0  0  0  0  0  0  0
    0.8538    0.4866   13.6421 C   0  0  0  0  0  0  0  0  0  0  0  0
   -1.3331   -0.7517   13.8768 C   0  0  0  0  0  0  0  0  0  0  0  0
   -1.8725   -0.0538   13.0172 O   0  0  0  0  0  0  0  0  0  0  0  0
   -2.0065   -1.5971   14.6741 N   0  0  0  0  0  0  0  0  0  0  0  0
   -3.3502   -2.0077   14.5176 C   0  0  0  0  0  0  0  0  0  0  0  0
   -4.1407   -2.2038   15.6678 C   0  0  0  0  0  0  0  0  0  0  0  0
   -5.4778   -2.6276   15.5404 C   0  0  0  0  0  0  0  0  0  0  0  0
   -6.0242   -2.8755   14.2625 C   0  0  0  0  0  0  0  0  0  0  0  0
   -7.4727   -3.3071   14.1182 C   0  0  0  0  0  0  0  0  0  0  0  0
   -8.3434   -2.0622   13.9278 C   0  0  0  0  0  0  0  0  0  0  0  0
   -9.3843   -1.9908   14.6168 O   0  0  0  0  0  0  0  0  0  0  0  0
   -7.9610   -1.1961   13.1067 O   0  0  0  0  0  0  0  0  0  0  0  0
   -5.2238   -2.7099   13.1139 C   0  0  0  0  0  0  0  0  0  0  0  0
   -3.8933   -2.2778   13.2399 C   0  0  0  0  0  0  0  0  0  0  0  0
    0.0939    4.4496   11.4732 C   0  0  0  0  0  0  0  0  0  0  0  0
   -1.3088    4.5564   11.3156 C   0  0  0  0  0  0  0  0  0  0  0  0
   -2.1622    4.8626   12.3550 O   0  0  0  0  0  0  0  0  0  0  0  0
   -1.5999    5.4744   13.5085 C   0  0  0  0  0  0  0  0  0  0  0  0
   -4.9480    4.2982    8.7913 H   0  0  0  0  0  0  0  0  0  0  0  0
   -3.5697    5.0628    8.0123 H   0  0  0  0  0  0  0  0  0  0  0  0
   -3.6190    3.2936    8.2250 H   0  0  0  0  0  0  0  0  0  0  0  0
   -1.4327    3.9150    7.9446 H   0  0  0  0  0  0  0  0  0  0  0  0
    0.9879    3.7902    8.2454 H   0  0  0  0  0  0  0  0  0  0  0  0
    2.8819    4.6658   10.0001 H   0  0  0  0  0  0  0  0  0  0  0  0
    4.7319    1.7289   14.5812 H   0  0  0  0  0  0  0  0  0  0  0  0
    6.6740    3.5312   14.1763 H   0  0  0  0  0  0  0  0  0  0  0  0
    7.0070    5.4776   12.2202 H   0  0  0  0  0  0  0  0  0  0  0  0
    3.9922   -0.3510   14.6903 H   0  0  0  0  0  0  0  0  0  0  0  0
    2.7563   -2.2334   15.6420 H   0  0  0  0  0  0  0  0  0  0  0  0
    0.3422   -2.4738   15.2944 H   0  0  0  0  0  0  0  0  0  0  0  0
    0.3150    1.2442   13.0906 H   0  0  0  0  0  0  0  0  0  0  0  0
   -1.5076   -1.9824   15.4616 H   0  0  0  0  0  0  0  0  0  0  0  0
   -3.7345   -2.0110   16.6507 H   0  0  0  0  0  0  0  0  0  0  0  0
   -6.0843   -2.7557   16.4257 H   0  0  0  0  0  0  0  0  0  0  0  0
   -7.7898   -3.8567   15.0077 H   0  0  0  0  0  0  0  0  0  0  0  0
   -7.5918   -3.9748   13.2639 H   0  0  0  0  0  0  0  0  0  0  0  0
   -5.6397   -2.8962   12.1325 H   0  0  0  0  0  0  0  0  0  0  0  0
   -3.3001   -2.1518   12.3472 H   0  0  0  0  0  0  0  0  0  0  0  0
    0.5573    4.5886   12.4370 H   0  0  0  0  0  0  0  0  0  0  0  0
   -2.3964    5.7390   14.2031 H   0  0  0  0  0  0  0  0  0  0  0  0
   -0.9235    4.8048   14.0377 H   0  0  0  0  0  0  0  0  0  0  0  0
   -1.0642    6.3877   13.2527 H   0  0  0  0  0  0  0  0  0  0  0  0
  1  2  1  0
  1 40  1  0
  1 41  1  0
  1 42  1  0
  2  3  1  0
  3  4  2  0
  3 37  1  0
  4  5  1  0
  4 43  1  0
  5  6  2  0
  5 44  1  0
  6  7  1  0
  6 36  1  0
  7  8  1  0
  7 45  1  0
  8  9  2  0
  8 16  1  0
  9 10  1  0
 10 11  2  0
 10 17  1  0
 11 12  1  0
 11 46  1  0
 12 13  1  0
 12 16  1  0
 13 14  2  0
 13 47  1  0
 14 15  1  0
 14 48  1  0
 15 16  2  0
 17 18  2  0
 17 22  1  0
 18 19  1  0
 18 49  1  0
 19 20  2  0
 19 50  1  0
 20 21  1  0
 20 51  1  0
 21 22  2  0
 21 23  1  0
 22 52  1  0
 23 24  2  0
 23 25  1  0
 25 26  1  0
 25 53  1  0
 26 27  2  0
 26 35  1  0
 27 28  1  0
 27 54  1  0
 28 29  2  0
 28 55  1  0
 29 30  1  0
 29 34  1  0
 30 31  1  0
 30 56  1  0
 30 57  1  0
 31 32  2  0
 31 33  1  0
 34 35  2  0
 34 58  1  0
 35 59  1  0
 36 37  2  0
 36 60  1  0
 37 38  1  0
 38 39  1  0
 39 61  1  0
 39 62  1  0
 39 63  1  0
M  CHG  1  33  -1
M  END
>  <s_m_entry_id>  (1) 
694

>  <IC50[nM]>  (1) 
2.6

>  <s_m_Source_Path>  (1) 
/projects/mai/users/kmzp800_harry/pmx_colab/docking_jobs/syk

>  <s_m_Source_File>  (1) 
tnks2_lig.sdf

>  <i_m_Source_File_Index>  (1) 
15

>  <s_m_job_name>  (1) 
glide-dock_SP_tnks2_no_const

>  <r_i_docking_score>  (1) 
-7.11840043993134

>  <r_i_glide_gscore>  (1) 
-7.11840043993134

>  <r_i_glide_emodel>  (1) 
-87.658646923044

>  <index_string>  (1) 
14:0:0

$$$$
