17:0:0
     RDKit          3D

 45 48  0  0  1  0  0  0  0  0999 V2000
  -14.3343  -15.3730  -27.7680 C   0  0  0  0  0  0  0  0  0  0  0  0
  -14.9127  -16.1410  -26.7386 C   0  0  0  0  0  0  0  0  0  0  0  0
  -14.4483  -13.9714  -27.7616 C   0  0  0  0  0  0  0  0  0  0  0  0
  -15.6483  -15.4954  -25.7183 C   0  0  0  0  0  0  0  0  0  0  0  0
  -14.7217  -17.5314  -26.7335 N   0  0  0  0  0  0  0  0  0  0  0  0
  -15.1648  -13.3280  -26.7360 C   0  0  0  0  0  0  0  0  0  0  0  0
  -15.7798  -14.0877  -25.7171 C   0  0  0  0  0  0  0  0  0  0  0  0
  -16.2593  -16.3593  -24.6565 C   0  0  0  0  0  0  0  0  0  0  0  0
  -15.9557  -17.6653  -24.7387 N   0  0  0  0  0  0  0  0  0  0  0  0
  -16.9859  -15.9117  -23.7748 O   0  0  0  0  0  0  0  0  0  0  0  0
  -15.1895  -18.2551  -25.7543 C   0  0  0  0  0  0  0  0  0  0  0  0
  -14.9198  -19.7237  -25.7467 C   0  0  0  0  0  0  0  0  0  0  0  0
  -14.8482  -20.4139  -26.9724 C   0  0  0  0  0  0  0  0  0  0  0  0
  -14.5186  -21.7755  -26.9963 C   0  0  0  0  0  0  0  0  0  0  0  0
  -14.2141  -22.4757  -25.8176 C   0  0  0  0  0  0  0  0  0  0  0  0
  -14.2971  -21.7914  -24.5846 C   0  0  0  0  0  0  0  0  0  0  0  0
  -14.6687  -20.4291  -24.5468 C   0  0  0  0  0  0  0  0  0  0  0  0
  -15.2483  -11.9772  -26.7386 F   0  0  0  0  0  0  0  0  0  0  0  0
  -13.8011  -23.8157  -25.9038 N   0  0  0  0  0  0  0  0  0  0  0  0
  -14.5504  -24.7589  -26.7357 C   0  0  0  0  0  0  0  0  0  0  0  0
  -13.6055  -25.6500  -27.5649 C   0  0  0  0  0  0  0  0  0  0  0  0
  -12.5035  -26.2084  -26.7386 N   0  0  0  0  0  0  0  0  0  0  0  0
  -11.7177  -25.1428  -26.0715 C   0  0  0  0  0  0  0  0  0  0  0  0
  -12.6052  -24.2471  -25.1818 C   0  0  0  0  0  0  0  0  0  0  0  0
  -11.6484  -27.1502  -27.4932 C   0  0  0  0  0  0  0  0  0  0  0  0
  -13.9838  -13.3826  -28.5396 H   0  0  0  0  0  0  0  0  0  0  0  0
  -16.3362  -13.5886  -24.9351 H   0  0  0  0  0  0  0  0  0  0  0  0
  -16.3864  -18.2683  -24.0489 H   0  0  0  0  0  0  0  0  0  0  0  0
  -15.0115  -19.9003  -27.9083 H   0  0  0  0  0  0  0  0  0  0  0  0
  -14.4505  -22.2758  -27.9385 H   0  0  0  0  0  0  0  0  0  0  0  0
  -14.0670  -22.3030  -23.6608 H   0  0  0  0  0  0  0  0  0  0  0  0
  -14.7173  -19.9296  -23.5921 H   0  0  0  0  0  0  0  0  0  0  0  0
  -15.2379  -24.2454  -27.4075 H   0  0  0  0  0  0  0  0  0  0  0  0
  -15.1935  -25.3614  -26.0938 H   0  0  0  0  0  0  0  0  0  0  0  0
  -14.1755  -26.4585  -28.0246 H   0  0  0  0  0  0  0  0  0  0  0  0
  -13.1771  -25.0646  -28.3807 H   0  0  0  0  0  0  0  0  0  0  0  0
  -10.9147  -25.5745  -25.4721 H   0  0  0  0  0  0  0  0  0  0  0  0
  -11.2482  -24.5322  -26.8443 H   0  0  0  0  0  0  0  0  0  0  0  0
  -12.8484  -24.7694  -24.2577 H   0  0  0  0  0  0  0  0  0  0  0  0
  -12.0482  -23.3672  -24.8673 H   0  0  0  0  0  0  0  0  0  0  0  0
  -11.1343  -26.6443  -28.3123 H   0  0  0  0  0  0  0  0  0  0  0  0
  -10.8948  -27.5956  -26.8411 H   0  0  0  0  0  0  0  0  0  0  0  0
  -12.2443  -27.9632  -27.9101 H   0  0  0  0  0  0  0  0  0  0  0  0
  -12.9355  -26.7424  -25.9983 H   0  0  0  0  0  0  0  0  0  0  0  0
  -13.7766  -15.8583  -28.5553 H   0  0  0  0  0  0  0  0  0  0  0  0
  1  2  2  0
  1  3  1  0
  1 45  1  0
  2  4  1  0
  2  5  1  0
  3  6  2  0
  3 26  1  0
  4  7  2  0
  4  8  1  0
  5 11  2  0
  6  7  1  0
  6 18  1  0
  7 27  1  0
  8  9  1  0
  8 10  2  0
  9 11  1  0
  9 28  1  0
 11 12  1  0
 12 13  2  0
 12 17  1  0
 13 14  1  0
 13 29  1  0
 14 15  2  0
 14 30  1  0
 15 16  1  0
 15 19  1  0
 16 17  2  0
 16 31  1  0
 17 32  1  0
 19 20  1  0
 19 24  1  0
 20 21  1  0
 20 33  1  0
 20 34  1  0
 21 22  1  0
 21 35  1  0
 21 36  1  0
 22 23  1  0
 22 25  1  0
 22 44  1  0
 23 24  1  0
 23 37  1  0
 23 38  1  0
 24 39  1  0
 24 40  1  0
 25 41  1  0
 25 42  1  0
 25 43  1  0
M  CHG  1  22   1
M  END
>  <s_m_entry_id>  (1) 
432

>  <Name>  (1) 
8a

>  <IC50[nM]>  (1) 
12

>  <s_m_Source_Path>  (1) 
/projects/mai/users/kmzp800_harry/pmx_colab/docking_jobs/tnks2

>  <s_m_Source_File>  (1) 
tnks2_lig.sdf

>  <i_m_Source_File_Index>  (1) 
18

>  <s_m_job_name>  (1) 
glide-dock_SP_tnks2_no_cons

>  <r_i_docking_score>  (1) 
-11.0970641397385

>  <r_i_glide_gscore>  (1) 
-11.0970641397385

>  <r_i_glide_emodel>  (1) 
-70.5045589149425

>  <index_string>  (1) 
17:0:0

$$$$
