21:0:0
     RDKit          3D

 29 30  0  0  1  0  0  0  0  0999 V2000
   41.4626   17.4863   11.7681 O   0  0  0  0  0  0  0  0  0  0  0  0
   40.5850   17.1946   12.6155 C   0  0  0  0  0  0  0  0  0  0  0  0
   39.3732   17.4894   12.5004 O   0  0  0  0  0  0  0  0  0  0  0  0
   41.0039   16.4505   13.8923 C   0  0  0  0  0  0  0  0  0  0  0  0
   42.2050   15.7114   13.6921 O   0  0  0  0  0  0  0  0  0  0  0  0
   42.5592   14.9175   14.7316 C   0  0  0  0  0  0  0  0  0  0  0  0
   42.1820   13.5617   14.8784 C   0  0  0  0  0  0  0  0  0  0  0  0
   40.9838   12.7771   13.6583 Br  0  0  0  0  0  0  0  0  0  0  0  0
   42.6274   12.9090   15.9929 C   0  0  0  0  0  0  0  0  0  0  0  0
   43.6313   13.9815   16.9114 S   0  0  0  0  0  0  0  0  0  0  0  0
   43.3588   15.2921   15.7751 C   0  0  0  0  0  0  0  0  0  0  0  0
   43.9732   16.5700   16.0977 C   0  0  0  0  0  0  0  0  0  0  0  0
   44.5827   16.6863   17.1790 O   0  0  0  0  0  0  0  0  0  0  0  0
   43.8723   17.5199   15.2941 O   0  0  0  0  0  0  0  0  0  0  0  0
   42.3538   11.5571   16.4760 C   0  0  0  0  0  0  0  0  0  0  0  0
   41.0544   11.0061   16.3908 C   0  0  0  0  0  0  0  0  0  0  0  0
   40.7987    9.6908   16.8174 C   0  0  0  0  0  0  0  0  0  0  0  0
   41.8372    8.9185   17.3648 C   0  0  0  0  0  0  0  0  0  0  0  0
   43.1273    9.4638   17.4931 C   0  0  0  0  0  0  0  0  0  0  0  0
   44.1342    8.7082   18.0946 N   0  0  0  0  0  0  0  0  0  0  0  0
   43.3838   10.7717   17.0366 C   0  0  0  0  0  0  0  0  0  0  0  0
   41.1429   17.1797   14.6922 H   0  0  0  0  0  0  0  0  0  0  0  0
   40.1950   15.7838   14.1957 H   0  0  0  0  0  0  0  0  0  0  0  0
   40.2363   11.5885   15.9939 H   0  0  0  0  0  0  0  0  0  0  0  0
   39.8045    9.2778   16.7341 H   0  0  0  0  0  0  0  0  0  0  0  0
   41.6291    7.9143   17.7061 H   0  0  0  0  0  0  0  0  0  0  0  0
   43.8316    7.9299   18.6653 H   0  0  0  0  0  0  0  0  0  0  0  0
   44.9194    9.2147   18.4755 H   0  0  0  0  0  0  0  0  0  0  0  0
   44.3777   11.1825   17.1172 H   0  0  0  0  0  0  0  0  0  0  0  0
  1  2  2  0
  2  3  1  0
  2  4  1  0
  4  5  1  0
  4 22  1  0
  4 23  1  0
  5  6  1  0
  6 11  2  0
  6  7  1  0
  7  8  1  0
  7  9  2  0
  9 10  1  0
  9 15  1  0
 10 11  1  0
 11 12  1  0
 12 13  2  0
 12 14  1  0
 15 21  1  0
 15 16  2  0
 16 17  1  0
 16 24  1  0
 17 18  2  0
 17 25  1  0
 18 19  1  0
 18 26  1  0
 19 20  1  0
 19 21  2  0
 20 27  1  0
 20 28  1  0
 21 29  1  0
M  CHG  2   3  -1  14  -1
M  END
>  <s_m_entry_id>  (1) 
496

>  <i_f3d_flags>  (1) 
0

>  <r_epik_Ionization_Penalty>  (1) 
  0.0006

>  <r_epik_State_Penalty>  (1) 
  0.0003

>  <i_epik_Tot_Q>  (1) 
-2

>  <s_m_job_name>  (1) 
glide-dock_SP_ptp1b_core_cons

>  <r_i_docking_score>  (1) 
-7.18618568463871

>  <r_i_glide_gscore>  (1) 
-7.18648568463871

>  <r_i_glide_emodel>  (1) 
-84.6939734240087

>  <index_string>  (1) 
21:0:0

$$$$
