32:0:0
     RDKit          3D

 43 47  0  0  1  0  0  0  0  0999 V2000
   -2.0700    3.3030   10.2840 C   0  0  0  0  0  0  0  0  0  0  0  0
   -2.4710    2.1740   10.9230 N   0  0  0  0  0  0  0  0  0  0  0  0
   -1.3720    1.7840   11.5910 C   0  0  0  0  0  0  0  0  0  0  0  0
   -1.2480    0.6660   12.4110 C   0  0  0  0  0  0  0  0  0  0  0  0
   -2.3630   -0.2130   12.6200 N   0  0  0  0  0  0  0  0  0  0  0  0
   -0.0360    0.4460   13.0030 N   0  0  0  0  0  0  0  0  0  0  0  0
    1.0350    1.2790   12.8100 C   0  0  0  0  0  0  0  0  0  0  0  0
    0.8820    2.4020   11.9740 C   0  0  0  0  0  0  0  0  0  0  0  0
   -0.3300    2.5970   11.4010 N   0  0  0  0  0  0  0  0  0  0  0  0
   -0.7360    3.5720   10.5770 C   0  0  0  0  0  0  0  0  0  0  0  0
    2.3230    0.9930   13.4730 C   0  0  0  0  0  0  0  0  0  0  0  0
    3.5180    1.6260   13.0390 C   0  0  0  0  0  0  0  0  0  0  0  0
    4.7500    1.3600   13.6640 C   0  0  0  0  0  0  0  0  0  0  0  0
    4.7440    0.4550   14.7200 C   0  0  0  0  0  0  0  0  0  0  0  0
    5.7570   -0.0130   15.5250 C   0  0  0  0  0  0  0  0  0  0  0  0
    5.1890   -0.8830   16.3970 N   0  0  0  0  0  0  0  0  0  0  0  0
    3.8810   -0.9760   16.1700 N   0  0  0  0  0  0  0  0  0  0  0  0
    3.6060   -0.1580   15.1460 C   0  0  0  0  0  0  0  0  0  0  0  0
    2.3710    0.0810   14.5510 C   0  0  0  0  0  0  0  0  0  0  0  0
   -2.3930   -1.3960   13.4320 C   0  0  0  0  0  0  0  0  0  0  0  0
   -1.3950   -1.6760   14.3760 C   0  0  0  0  0  0  0  0  0  0  0  0
   -1.4580   -2.8390   15.1480 C   0  0  0  0  0  0  0  0  0  0  0  0
   -2.5240   -3.7380   14.9840 C   0  0  0  0  0  0  0  0  0  0  0  0
   -3.5180   -3.4580   14.0420 C   0  0  0  0  0  0  0  0  0  0  0  0
   -3.4520   -2.2940   13.2710 C   0  0  0  0  0  0  0  0  0  0  0  0
   -2.6170   -4.9100   15.7390 O   0  0  0  0  0  0  0  0  0  0  0  0
   -2.7400   -6.1960   15.1480 C   0  0  0  0  0  0  0  0  0  0  0  0
   -2.7070    3.9162    9.6296 H   0  0  0  0  0  0  0  0  0  0  0  0
   -3.2375    0.0320   12.1340 H   0  0  0  0  0  0  0  0  0  0  0  0
    1.7163    3.0956   11.7929 H   0  0  0  0  0  0  0  0  0  0  0  0
   -0.1357    4.4159   10.2063 H   0  0  0  0  0  0  0  0  0  0  0  0
    3.4796    2.3363   12.2000 H   0  0  0  0  0  0  0  0  0  0  0  0
    5.6786    1.8471   13.3316 H   0  0  0  0  0  0  0  0  0  0  0  0
    6.8201    0.2643   15.4718 H   0  0  0  0  0  0  0  0  0  0  0  0
    3.2092   -1.5642   16.6834 H   0  0  0  0  0  0  0  0  0  0  0  0
    1.4614   -0.4239   14.9084 H   0  0  0  0  0  0  0  0  0  0  0  0
   -0.5572   -0.9758   14.5098 H   0  0  0  0  0  0  0  0  0  0  0  0
   -0.6704   -3.0508   15.8861 H   0  0  0  0  0  0  0  0  0  0  0  0
   -4.3564   -4.1572   13.9068 H   0  0  0  0  0  0  0  0  0  0  0  0
   -4.2392   -2.0831   12.5322 H   0  0  0  0  0  0  0  0  0  0  0  0
   -2.8128   -6.9574   15.9386 H   0  0  0  0  0  0  0  0  0  0  0  0
   -3.6453   -6.2277   14.5239 H   0  0  0  0  0  0  0  0  0  0  0  0
   -1.8571   -6.3987   14.5239 H   0  0  0  0  0  0  0  0  0  0  0  0
  1 10  2  0
  1  2  1  0
  2  3  2  0
  3  4  1  0
  3  9  1  0
  4  5  1  0
  4  6  2  0
  5 20  1  0
  6  7  1  0
  7 11  1  0
  7  8  2  0
  8  9  1  0
  9 10  1  0
 11 19  1  0
 11 12  2  0
 12 13  1  0
 13 14  2  0
 14 18  1  0
 14 15  1  0
 15 16  2  0
 16 17  1  0
 17 18  1  0
 18 19  2  0
 20 21  2  0
 20 25  1  0
 21 22  1  0
 22 23  2  0
 23 26  1  0
 23 24  1  0
 24 25  2  0
 26 27  1  0
  1 28  1  0
  5 29  1  0
  8 30  1  0
 10 31  1  0
 12 32  1  0
 13 33  1  0
 15 34  1  0
 17 35  1  0
 19 36  1  0
 21 37  1  0
 22 38  1  0
 24 39  1  0
 25 40  1  0
 27 41  1  0
 27 42  1  0
 27 43  1  0
M  END
>  <s_m_entry_id>  (1) 
1001

>  <MODEL>  (1) 
9

>  <REMARK>  (1) 
 VINA RESULT:    -8.208      3.231      7.736
 INTER + INTRA:          -9.840
 INTER:                  -9.663
 INTRA:                  -0.177
 UNBOUND:                -0.193
  Name = /scratch/kmzp800/tmpa_c0i03n/tmpor08rp0v.pdb
  4 active torsions:
  status: ('A' for Active; 'I' for Inactive)
    1  A    between atoms: N2_5  and  C4_6
    2  A    between atoms: C7_9  and  O1_10
    3  A    between atoms: O1_10  and  C8_11
    4  A    between atoms: C11_15  and  C12_16
                            x       y       z     vdW  Elec       q    Type
                         _______ _______ _______ _____ _____    ______ ____

>  <TORSDO>  (1) 
F 3

>  <grid_id>  (1) 
syk-prepared

>  <grid_path>  (1) 
syk_vina.pdbqt

>  <grid_filename>  (1) 
syk_vina.pdbqt

>  <docking_score>  (1) 
-8.208

>  <compound_name>  (1) 
CHEMBL3265029

>  <index_string>  (1) 
32:0:0

>  <s_m_Source_Path>  (1) 
/projects/mai/users/kmzp800_harry/pmx_colab/docking_jobs/syk/vina_prep/output

>  <s_m_Source_File>  (1) 
ptp1b_docked_conformers.sdf

>  <i_m_Source_File_Index>  (1) 
825

$$$$
