4:0:0
     RDKit          3D

 42 44  0  0  1  0  0  0  0  0999 V2000
   39.1903   17.5124   12.6948 O   0  0  0  0  0  0  0  0  0  0  0  0
   40.3619   17.0683   12.6943 C   0  0  0  0  0  0  0  0  0  0  0  0
   41.2126   17.3142   11.8103 O   0  0  0  0  0  0  0  0  0  0  0  0
   40.7627   16.1437   13.8506 C   0  0  0  0  0  0  0  0  0  0  0  0
   42.1323   15.7523   13.7521 O   0  0  0  0  0  0  0  0  0  0  0  0
   42.5351   14.9310   14.7460 C   0  0  0  0  0  0  0  0  0  0  0  0
   42.1787   13.5724   14.8793 C   0  0  0  0  0  0  0  0  0  0  0  0
   41.1791   12.6859   13.5478 Br  0  0  0  0  0  0  0  0  0  0  0  0
   42.6242   12.9391   15.9999 C   0  0  0  0  0  0  0  0  0  0  0  0
   42.3449   11.5939   16.4678 C   0  0  0  0  0  0  0  0  0  0  0  0
   43.3835   10.7553   16.9280 C   0  0  0  0  0  0  0  0  0  0  0  0
   43.1120    9.4378   17.3310 C   0  0  0  0  0  0  0  0  0  0  0  0
   41.8000    8.9486   17.2695 C   0  0  0  0  0  0  0  0  0  0  0  0
   40.7420    9.7728   16.8309 C   0  0  0  0  0  0  0  0  0  0  0  0
   39.4128    9.3391   16.7771 N   0  0  0  0  0  0  0  0  0  0  0  0
   38.6985    7.8049   17.1760 S   0  0  0  0  0  0  0  0  0  0  0  0
   39.6805    7.0223   17.9507 O   0  0  0  0  0  0  0  0  0  0  0  0
   37.3846    8.1236   17.7396 O   0  0  0  0  0  0  0  0  0  0  0  0
   38.4996    7.0414   15.5743 C   0  0  0  0  0  0  0  0  0  0  0  0
   39.5685    6.3571   14.9644 C   0  0  0  0  0  0  0  0  0  0  0  0
   39.3838    5.7657   13.6948 C   0  0  0  0  0  0  0  0  0  0  0  0
   38.1345    5.8634   13.0475 C   0  0  0  0  0  0  0  0  0  0  0  0
   37.9471    5.2935   11.8383 F   0  0  0  0  0  0  0  0  0  0  0  0
   37.0736    6.5569   13.6569 C   0  0  0  0  0  0  0  0  0  0  0  0
   37.2537    7.1537   14.9204 C   0  0  0  0  0  0  0  0  0  0  0  0
   41.0278   11.0917   16.4445 C   0  0  0  0  0  0  0  0  0  0  0  0
   43.6437   14.0079   16.9116 S   0  0  0  0  0  0  0  0  0  0  0  0
   43.3742   15.3123   15.7695 C   0  0  0  0  0  0  0  0  0  0  0  0
   44.0317   16.5841   16.0496 C   0  0  0  0  0  0  0  0  0  0  0  0
   43.8739   17.5458   15.2675 O   0  0  0  0  0  0  0  0  0  0  0  0
   44.7480   16.6861   17.0682 O   0  0  0  0  0  0  0  0  0  0  0  0
   40.5573   16.6342   14.8031 H   0  0  0  0  0  0  0  0  0  0  0  0
   40.1465   15.2554   13.8213 H   0  0  0  0  0  0  0  0  0  0  0  0
   44.4008   11.1187   16.9500 H   0  0  0  0  0  0  0  0  0  0  0  0
   43.9021    8.7944   17.6821 H   0  0  0  0  0  0  0  0  0  0  0  0
   41.6499    7.9353   17.5708 H   0  0  0  0  0  0  0  0  0  0  0  0
   38.7755   10.0078   16.3778 H   0  0  0  0  0  0  0  0  0  0  0  0
   40.5318    6.2852   15.4632 H   0  0  0  0  0  0  0  0  0  0  0  0
   40.2015    5.2343   13.2294 H   0  0  0  0  0  0  0  0  0  0  0  0
   36.1219    6.6371   13.1584 H   0  0  0  0  0  0  0  0  0  0  0  0
   36.4378    7.6895   15.3914 H   0  0  0  0  0  0  0  0  0  0  0  0
   40.2247   11.7419   16.1110 H   0  0  0  0  0  0  0  0  0  0  0  0
  1  2  2  0
  2  3  1  0
  2  4  1  0
  4  5  1  0
  4 32  1  0
  4 33  1  0
  5  6  1  0
  6  7  1  0
  6 28  2  0
  7  8  1  0
  7  9  2  0
  9 10  1  0
  9 27  1  0
 10 11  2  0
 10 26  1  0
 11 12  1  0
 11 34  1  0
 12 13  2  0
 12 35  1  0
 13 14  1  0
 13 36  1  0
 14 15  1  0
 14 26  2  0
 15 16  1  0
 15 37  1  0
 16 17  2  0
 16 18  2  0
 16 19  1  0
 19 20  2  0
 19 25  1  0
 20 21  1  0
 20 38  1  0
 21 22  2  0
 21 39  1  0
 22 23  1  0
 22 24  1  0
 24 25  2  0
 24 40  1  0
 25 41  1  0
 26 42  1  0
 27 28  1  0
 28 29  1  0
 29 30  2  0
 29 31  1  0
M  CHG  2   3  -1  31  -1
M  END
>  <s_m_entry_id>  (1) 
521

>  <s_m_Source_Path>  (1) 
/projects/mai/users/kmzp800_harry/pmx_colab/docking_jobs/ptp1b/glide-dock_SP_ptp1b_mcs_2

>  <s_m_Source_File>  (1) 
glide-dock_SP_ptp1b_mcs_2_pv.maegz

>  <i_m_Source_File_Index>  (1) 
6

>  <r_i_docking_score>  (1) 
-6.9111264317858

>  <r_i_glide_gscore>  (1) 
-6.9111264317858

>  <r_i_glide_emodel>  (1) 
-91.8169814862567

>  <index_string>  (1) 
4:0:0

$$$$
