10:0:0
     RDKit          3D

 56 59  0  0  1  0  0  0  0  0999 V2000
   38.9518   36.1465   16.2155 F   0  0  0  0  0  0  0  0  0  0  0  0
   37.7909   35.9509   16.8710 C   0  0  0  0  0  0  0  0  0  0  0  0
   36.6282   35.5744   16.1676 C   0  0  0  0  0  0  0  0  0  0  0  0
   35.4119   35.4327   16.8686 C   0  0  0  0  0  0  0  0  0  0  0  0
   34.2936   35.0855   16.1898 F   0  0  0  0  0  0  0  0  0  0  0  0
   35.3562   35.6402   18.2672 C   0  0  0  0  0  0  0  0  0  0  0  0
   36.5500   35.9527   18.9660 C   0  0  0  0  0  0  0  0  0  0  0  0
   37.7570   36.1183   18.2663 C   0  0  0  0  0  0  0  0  0  0  0  0
   34.1367   35.5221   18.8978 O   0  0  0  0  0  0  0  0  0  0  0  0
   33.9414   36.1170   20.1215 C   0  0  0  0  0  0  0  0  0  0  0  0
   34.1415   37.4409   20.2997 C   0  0  0  0  0  0  0  0  0  0  0  0
   33.5245   35.2484   21.2257 C   0  0  0  0  0  0  0  0  0  0  0  0
   33.3193   34.0464   21.0430 O   0  0  0  0  0  0  0  0  0  0  0  0
   33.4016   35.8333   22.4579 N   0  0  0  0  0  0  0  0  0  0  0  0
   33.0413   34.9911   23.6201 C   0  0  0  0  0  0  0  0  0  0  0  0
   34.2614   34.4144   24.3900 C   0  0  0  0  0  0  0  0  0  0  0  0
   34.9389   33.5487   23.5167 O   0  0  0  0  0  0  0  0  0  0  0  0
   35.3149   35.4240   24.8725 C   0  0  0  0  0  0  0  0  0  0  0  0
   33.7697   33.5902   25.5921 C   0  0  0  0  0  0  0  0  0  0  0  0
   33.6254   37.2307   22.6914 C   0  0  0  0  0  0  0  0  0  0  0  0
   33.9980   38.0527   21.6108 C   0  0  0  0  0  0  0  0  0  0  0  0
   33.5207   37.7714   23.9213 N   0  0  0  0  0  0  0  0  0  0  0  0
   33.7852   39.0605   24.0839 C   0  0  0  0  0  0  0  0  0  0  0  0
   34.1436   39.9204   23.1297 N   0  0  0  0  0  0  0  0  0  0  0  0
   34.2443   39.4148   21.8807 C   0  0  0  0  0  0  0  0  0  0  0  0
   33.7056   39.5509   25.3683 N   0  0  0  0  0  0  0  0  0  0  0  0
   34.0697   38.7795   26.5534 C   0  0  0  0  0  0  0  0  0  0  0  0
   34.5807   39.6954   27.6781 C   0  0  0  0  0  0  0  0  0  0  0  0
   33.4266   40.4443   28.3668 C   0  0  0  0  0  0  0  0  0  0  0  0
   32.4647   39.5128   28.8466 O   0  0  0  0  0  0  0  0  0  0  0  0
   31.8487   38.7725   27.7982 C   0  0  0  0  0  0  0  0  0  0  0  0
   32.9093   37.9155   27.0876 C   0  0  0  0  0  0  0  0  0  0  0  0
   36.6605   35.4370   15.0893 H   0  0  0  0  0  0  0  0  0  0  0  0
   36.5538   36.0885   20.0373 H   0  0  0  0  0  0  0  0  0  0  0  0
   38.6589   36.3844   18.7971 H   0  0  0  0  0  0  0  0  0  0  0  0
   34.4573   38.0757   19.4882 H   0  0  0  0  0  0  0  0  0  0  0  0
   32.4176   35.5614   24.3092 H   0  0  0  0  0  0  0  0  0  0  0  0
   32.3839   34.1744   23.3146 H   0  0  0  0  0  0  0  0  0  0  0  0
   34.7581   32.6524   23.8009 H   0  0  0  0  0  0  0  0  0  0  0  0
   34.8775   36.1152   25.5868 H   0  0  0  0  0  0  0  0  0  0  0  0
   36.1346   34.9196   25.3875 H   0  0  0  0  0  0  0  0  0  0  0  0
   35.7508   35.9963   24.0540 H   0  0  0  0  0  0  0  0  0  0  0  0
   33.2609   34.2273   26.3171 H   0  0  0  0  0  0  0  0  0  0  0  0
   33.0626   32.8147   25.2931 H   0  0  0  0  0  0  0  0  0  0  0  0
   34.5988   33.1077   26.1122 H   0  0  0  0  0  0  0  0  0  0  0  0
   34.5423   40.0970   21.0987 H   0  0  0  0  0  0  0  0  0  0  0  0
   33.8191   40.5564   25.4598 H   0  0  0  0  0  0  0  0  0  0  0  0
   34.8984   38.1353   26.2650 H   0  0  0  0  0  0  0  0  0  0  0  0
   35.0923   39.0876   28.4260 H   0  0  0  0  0  0  0  0  0  0  0  0
   35.3213   40.4005   27.2977 H   0  0  0  0  0  0  0  0  0  0  0  0
   33.8045   41.0252   29.2081 H   0  0  0  0  0  0  0  0  0  0  0  0
   32.9521   41.1506   27.6824 H   0  0  0  0  0  0  0  0  0  0  0  0
   31.0732   38.1348   28.2243 H   0  0  0  0  0  0  0  0  0  0  0  0
   31.3537   39.4469   27.0964 H   0  0  0  0  0  0  0  0  0  0  0  0
   32.4488   37.3281   26.2937 H   0  0  0  0  0  0  0  0  0  0  0  0
   33.3062   37.1928   27.8011 H   0  0  0  0  0  0  0  0  0  0  0  0
  1  2  1  0
  2  8  2  0
  2  3  1  0
  3  4  2  0
  3 33  1  0
  4  5  1  0
  4  6  1  0
  6  7  2  0
  6  9  1  0
  7  8  1  0
  7 34  1  0
  8 35  1  0
  9 10  1  0
 10 11  2  0
 10 12  1  0
 11 21  1  0
 11 36  1  0
 12 13  2  0
 12 14  1  0
 14 15  1  0
 14 20  1  0
 15 16  1  0
 15 37  1  0
 15 38  1  0
 16 17  1  0
 16 18  1  0
 16 19  1  0
 17 39  1  0
 18 40  1  0
 18 41  1  0
 18 42  1  0
 19 43  1  0
 19 44  1  0
 19 45  1  0
 20 21  2  0
 20 22  1  0
 21 25  1  0
 22 23  2  0
 23 24  1  0
 23 26  1  0
 24 25  2  0
 25 46  1  0
 26 27  1  0
 26 47  1  0
 27 32  1  0
 27 28  1  0
 27 48  1  0
 28 29  1  0
 28 49  1  0
 28 50  1  0
 29 30  1  0
 29 51  1  0
 29 52  1  0
 30 31  1  0
 31 32  1  0
 31 53  1  0
 31 54  1  0
 32 55  1  0
 32 56  1  0
M  END
>  <s_m_entry_id>  (1) 
727

>  <i_f3d_flags>  (1) 
0

>  <r_lp_tautomer_probability>  (1) 
1

>  <r_epik_Ionization_Penalty>  (1) 
  0.0000

>  <r_epik_State_Penalty>  (1) 
  0.0000

>  <i_epik_Tot_Q>  (1) 
0

>  <s_m_job_name>  (1) 
glide-dock_SP_p38_all_ligs_no_cons_10_poses

>  <r_i_docking_score>  (1) 
-7.59796801880748

>  <r_i_glide_gscore>  (1) 
-7.59796801880748

>  <r_i_glide_emodel>  (1) 
-63.5633412471959

>  <index_string>  (1) 
10:0:0

$$$$
