23:0:0
     RDKit          3D

 51 54  0  0  1  0  0  0  0  0999 V2000
    5.5880   -0.5820   16.2380 C   0  0  0  0  0  0  0  0  0  0  0  0
    4.3210   -1.0630   16.1470 N   0  0  0  0  0  0  0  0  0  0  0  0
    3.7710   -0.3230   15.1690 C   0  0  0  0  0  0  0  0  0  0  0  0
    2.4730   -0.4170   14.6820 C   0  0  0  0  0  0  0  0  0  0  0  0
    1.5570   -1.3800   15.2240 N   0  0  0  0  0  0  0  0  0  0  0  0
    2.1120    0.4350   13.6770 N   0  0  0  0  0  0  0  0  0  0  0  0
    2.9740    1.3620   13.1460 C   0  0  0  0  0  0  0  0  0  0  0  0
    4.2810    1.4300   13.6630 C   0  0  0  0  0  0  0  0  0  0  0  0
    4.6160    0.5760   14.6590 N   0  0  0  0  0  0  0  0  0  0  0  0
    5.7770    0.4410   15.3120 C   0  0  0  0  0  0  0  0  0  0  0  0
    2.4960    2.2550   12.0490 C   0  0  0  0  0  0  0  0  0  0  0  0
    1.1370    2.6120   12.0570 C   0  0  0  0  0  0  0  0  0  0  0  0
    0.5970    3.4420   11.0740 C   0  0  0  0  0  0  0  0  0  0  0  0
    1.4060    3.9390   10.0500 C   0  0  0  0  0  0  0  0  0  0  0  0
    2.7620    3.5940   10.0240 C   0  0  0  0  0  0  0  0  0  0  0  0
    3.3160    2.7640   11.0040 C   0  0  0  0  0  0  0  0  0  0  0  0
    4.7700    2.4630   10.8760 C   0  0  0  0  0  0  0  0  0  0  0  0
    0.8390    4.8160    9.0100 C   0  0  0  0  0  0  0  0  0  0  0  0
    1.3700    5.9300    8.7570 O   0  0  0  0  0  0  0  0  0  0  0  0
   -0.3160    4.4130    8.2780 N   0  0  0  0  0  0  0  0  0  0  0  0
    0.1950   -1.5980   14.8290 C   0  0  0  0  0  0  0  0  0  0  0  0
   -0.4570   -2.8180   15.0490 C   0  0  0  0  0  0  0  0  0  0  0  0
   -1.7830   -2.9910   14.6500 C   0  0  0  0  0  0  0  0  0  0  0  0
   -2.4790   -1.9460   14.0240 C   0  0  0  0  0  0  0  0  0  0  0  0
   -1.8320   -0.7200   13.8000 C   0  0  0  0  0  0  0  0  0  0  0  0
   -0.4980   -0.5570   14.2060 C   0  0  0  0  0  0  0  0  0  0  0  0
   -3.8090   -2.1010   13.6170 O   0  0  0  0  0  0  0  0  0  0  0  0
   -4.2530   -3.2060   12.8420 C   0  0  0  0  0  0  0  0  0  0  0  0
   -2.5320    0.3180   13.1750 O   0  0  0  0  0  0  0  0  0  0  0  0
   -2.0310    1.0080   12.0380 C   0  0  0  0  0  0  0  0  0  0  0  0
    6.3524   -0.9468   16.9399 H   0  0  0  0  0  0  0  0  0  0  0  0
    1.9170   -1.9805   15.9795 H   0  0  0  0  0  0  0  0  0  0  0  0
    5.0087    2.1552   13.2698 H   0  0  0  0  0  0  0  0  0  0  0  0
    6.6967    1.0222   15.1495 H   0  0  0  0  0  0  0  0  0  0  0  0
    0.4847    2.2288   12.8555 H   0  0  0  0  0  0  0  0  0  0  0  0
   -0.4704    3.7059   11.1058 H   0  0  0  0  0  0  0  0  0  0  0  0
    3.4032    3.9823    9.2189 H   0  0  0  0  0  0  0  0  0  0  0  0
    5.2149    2.3709   11.8778 H   0  0  0  0  0  0  0  0  0  0  0  0
    4.9020    1.5185   10.3279 H   0  0  0  0  0  0  0  0  0  0  0  0
    5.2662    3.2775   10.3279 H   0  0  0  0  0  0  0  0  0  0  0  0
   -0.7073    5.0306    7.5525 H   0  0  0  0  0  0  0  0  0  0  0  0
   -0.7592    3.5043    8.4747 H   0  0  0  0  0  0  0  0  0  0  0  0
    0.0791   -3.6442   15.5389 H   0  0  0  0  0  0  0  0  0  0  0  0
   -2.2859   -3.9531   14.8275 H   0  0  0  0  0  0  0  0  0  0  0  0
    0.0086    0.4036   14.0312 H   0  0  0  0  0  0  0  0  0  0  0  0
   -4.5785   -4.0161   13.5112 H   0  0  0  0  0  0  0  0  0  0  0  0
   -5.0955   -2.8939   12.2074 H   0  0  0  0  0  0  0  0  0  0  0  0
   -3.4287   -3.5636   12.2074 H   0  0  0  0  0  0  0  0  0  0  0  0
   -1.4143    1.8574   12.3669 H   0  0  0  0  0  0  0  0  0  0  0  0
   -1.4187    0.3226   11.4335 H   0  0  0  0  0  0  0  0  0  0  0  0
   -2.8723    1.3780   11.4335 H   0  0  0  0  0  0  0  0  0  0  0  0
  1  2  1  0
  1 10  2  0
  2  3  2  0
  3  4  1  0
  3  9  1  0
  4  5  1  0
  4  6  2  0
  5 21  1  0
  6  7  1  0
  7  8  2  0
  7 11  1  0
  8  9  1  0
  9 10  1  0
 11 12  2  0
 11 16  1  0
 12 13  1  0
 13 14  2  0
 14 15  1  0
 14 18  1  0
 15 16  2  0
 16 17  1  0
 18 19  2  0
 18 20  1  0
 21 22  2  0
 21 26  1  0
 22 23  1  0
 23 24  2  0
 24 25  1  0
 24 27  1  0
 25 26  2  0
 25 29  1  0
 27 28  1  0
 29 30  1  0
  1 31  1  0
  5 32  1  0
  8 33  1  0
 10 34  1  0
 12 35  1  0
 13 36  1  0
 15 37  1  0
 17 38  1  0
 17 39  1  0
 17 40  1  0
 20 41  1  0
 20 42  1  0
 22 43  1  0
 23 44  1  0
 26 45  1  0
 28 46  1  0
 28 47  1  0
 28 48  1  0
 30 49  1  0
 30 50  1  0
 30 51  1  0
M  END
>  <s_m_entry_id>  (1) 
811

>  <MODEL>  (1) 
1

>  <REMARK>  (1) 
 VINA RESULT:   -10.180      0.000      0.000
 INTER + INTRA:         -12.195
 INTER:                 -12.336
 INTRA:                   0.140
 UNBOUND:                 0.961
  Name = /scratch/kmzp800/tmpqooz1kcy/tmpnb527eng.pdb
  8 active torsions:
  status: ('A' for Active; 'I' for Inactive)
    1  A    between atoms: N2_5  and  C4_6
    2  A    between atoms: C7_9  and  O1_10
    3  A    between atoms: O1_10  and  C8_11
    4  A    between atoms: C9_12  and  O2_13
    5  A    between atoms: O2_13  and  C10_14
    6  A    between atoms: C12_17  and  C13_18
    7  A    between atoms: C16_21  and  C17_22
    8  A    between atoms: C19_26  and  C20_27
                            x       y       z     vdW  Elec       q    Type
                         _______ _______ _______ _____ _____    ______ ____

>  <TORSDO>  (1) 
F 5

>  <grid_id>  (1) 
syk-prepared

>  <grid_path>  (1) 
syk_vina.pdbqt

>  <grid_filename>  (1) 
syk_vina.pdbqt

>  <docking_score>  (1) 
-10.18

>  <compound_name>  (1) 
CHEMBL3265015

>  <index_string>  (1) 
23:0:0

>  <s_m_Source_Path>  (1) 
/projects/mai/users/kmzp800_harry/pmx_colab/docking_jobs/syk/vina_prep/output

>  <s_m_Source_File>  (1) 
ptp1b_docked_conformers.sdf

>  <i_m_Source_File_Index>  (1) 
635

$$$$
