43:0:0
     RDKit          3D

 65 70  0  0  1  0  0  0  0  0999 V2000
   -4.6134   -3.0864   15.4674 C   0  0  0  0  0  0  0  0  0  0  0  0
   -3.9609   -2.1259   14.6470 O   0  0  0  0  0  0  0  0  0  0  0  0
   -2.5950   -1.9788   14.7839 C   0  0  0  0  0  0  0  0  0  0  0  0
   -1.7952   -2.7984   15.6189 C   0  0  0  0  0  0  0  0  0  0  0  0
   -0.4134   -2.5648   15.7387 C   0  0  0  0  0  0  0  0  0  0  0  0
    0.2062   -1.5155   15.0327 C   0  0  0  0  0  0  0  0  0  0  0  0
    1.5803   -1.3235   15.2659 N   0  0  0  0  0  0  0  0  0  0  0  0
    2.5216   -0.4279   14.7294 C   0  0  0  0  0  0  0  0  0  0  0  0
    2.1978    0.3840   13.7551 N   0  0  0  0  0  0  0  0  0  0  0  0
    3.1265    1.2708   13.2465 C   0  0  0  0  0  0  0  0  0  0  0  0
    4.4316    1.2862   13.6896 C   0  0  0  0  0  0  0  0  0  0  0  0
    4.7620    0.4698   14.7212 N   0  0  0  0  0  0  0  0  0  0  0  0
    5.9066    0.3713   15.4855 C   0  0  0  0  0  0  0  0  0  0  0  0
    5.5943   -0.4930   16.5014 C   0  0  0  0  0  0  0  0  0  0  0  0
    4.3512   -1.0632   16.3290 N   0  0  0  0  0  0  0  0  0  0  0  0
    3.8241   -0.4196   15.2933 C   0  0  0  0  0  0  0  0  0  0  0  0
    2.6629    2.2606   12.2370 C   0  0  0  0  0  0  0  0  0  0  0  0
    3.5766    2.8026   11.2972 C   0  0  0  0  0  0  0  0  0  0  0  0
    3.1623    3.7080   10.3061 C   0  0  0  0  0  0  0  0  0  0  0  0
    1.8159    4.0966   10.2356 C   0  0  0  0  0  0  0  0  0  0  0  0
    0.8847    3.6040   11.1729 C   0  0  0  0  0  0  0  0  0  0  0  0
    1.3161    2.7024   12.1783 C   0  0  0  0  0  0  0  0  0  0  0  0
   -0.5604    3.9685   11.0127 C   0  0  0  0  0  0  0  0  0  0  0  0
   -1.0611    3.9650    9.8881 O   0  0  0  0  0  0  0  0  0  0  0  0
   -1.2032    4.3267   12.1405 N   0  0  0  0  0  0  0  0  0  0  0  0
   -2.5402    4.8017   12.2671 C   0  0  0  0  0  0  0  0  0  0  0  0
   -3.5705    4.4892   11.3459 C   0  0  0  0  0  0  0  0  0  0  0  0
   -4.8655    5.0160   11.5151 C   0  0  0  0  0  0  0  0  0  0  0  0
   -5.1586    5.8450   12.6183 C   0  0  0  0  0  0  0  0  0  0  0  0
   -4.1494    6.1088   13.5659 C   0  0  0  0  0  0  0  0  0  0  0  0
   -2.8473    5.6035   13.3861 C   0  0  0  0  0  0  0  0  0  0  0  0
   -6.4945    6.4017   12.8022 C   0  0  0  0  0  0  0  0  0  0  0  0
   -6.7463    7.5569   13.4173 N   0  0  0  0  0  0  0  0  0  0  0  0
   -8.1338    7.7014   13.4025 C   0  0  0  0  0  0  0  0  0  0  0  0
   -8.6993    6.6250   12.7631 C   0  0  0  0  0  0  0  0  0  0  0  0
   -7.6333    5.8259   12.3892 N   0  0  0  0  0  0  0  0  0  0  0  0
   -0.5903   -0.7178   14.1782 C   0  0  0  0  0  0  0  0  0  0  0  0
   -1.9833   -0.9394   14.0481 C   0  0  0  0  0  0  0  0  0  0  0  0
   -2.8019   -0.1698   13.2447 O   0  0  0  0  0  0  0  0  0  0  0  0
   -2.2053    0.8003   12.3943 C   0  0  0  0  0  0  0  0  0  0  0  0
   -5.6869   -3.0493   15.2814 H   0  0  0  0  0  0  0  0  0  0  0  0
   -4.2765   -4.0990   15.2403 H   0  0  0  0  0  0  0  0  0  0  0  0
   -4.4556   -2.8805   16.5286 H   0  0  0  0  0  0  0  0  0  0  0  0
   -2.2173   -3.6050   16.1997 H   0  0  0  0  0  0  0  0  0  0  0  0
    0.1669   -3.1922   16.4019 H   0  0  0  0  0  0  0  0  0  0  0  0
    1.9768   -1.9188   15.9830 H   0  0  0  0  0  0  0  0  0  0  0  0
    5.1921    1.9814   13.3536 H   0  0  0  0  0  0  0  0  0  0  0  0
    6.7649    0.9926   15.2796 H   0  0  0  0  0  0  0  0  0  0  0  0
    6.1165   -0.7386   17.4010 H   0  0  0  0  0  0  0  0  0  0  0  0
    4.6121    2.4978   11.2995 H   0  0  0  0  0  0  0  0  0  0  0  0
    3.8740    4.0884    9.5880 H   0  0  0  0  0  0  0  0  0  0  0  0
    1.4985    4.7717    9.4529 H   0  0  0  0  0  0  0  0  0  0  0  0
    0.6003    2.3064   12.8832 H   0  0  0  0  0  0  0  0  0  0  0  0
   -0.6306    4.3856   12.9702 H   0  0  0  0  0  0  0  0  0  0  0  0
   -3.3900    3.8532   10.4930 H   0  0  0  0  0  0  0  0  0  0  0  0
   -5.6271    4.7872   10.7840 H   0  0  0  0  0  0  0  0  0  0  0  0
   -4.3693    6.7152   14.4328 H   0  0  0  0  0  0  0  0  0  0  0  0
   -2.0837    5.8336   14.1166 H   0  0  0  0  0  0  0  0  0  0  0  0
   -8.6104    8.5612   13.8500 H   0  0  0  0  0  0  0  0  0  0  0  0
   -9.7284    6.3706   12.5516 H   0  0  0  0  0  0  0  0  0  0  0  0
   -7.6998    4.9479   11.8957 H   0  0  0  0  0  0  0  0  0  0  0  0
   -0.1498    0.0935   13.6320 H   0  0  0  0  0  0  0  0  0  0  0  0
   -2.9723    1.2553   11.7680 H   0  0  0  0  0  0  0  0  0  0  0  0
   -1.7407    1.5978   12.9745 H   0  0  0  0  0  0  0  0  0  0  0  0
   -1.4648    0.3530   11.7295 H   0  0  0  0  0  0  0  0  0  0  0  0
  1  2  1  0
  1 41  1  0
  1 42  1  0
  1 43  1  0
  2  3  1  0
  3  4  2  0
  3 38  1  0
  4  5  1  0
  4 44  1  0
  5  6  2  0
  5 45  1  0
  6  7  1  0
  6 37  1  0
  7  8  1  0
  7 46  1  0
  8  9  2  0
  8 16  1  0
  9 10  1  0
 10 11  2  0
 10 17  1  0
 11 12  1  0
 11 47  1  0
 12 13  1  0
 12 16  1  0
 13 14  2  0
 13 48  1  0
 14 15  1  0
 14 49  1  0
 15 16  2  0
 17 18  2  0
 17 22  1  0
 18 19  1  0
 18 50  1  0
 19 20  2  0
 19 51  1  0
 20 21  1  0
 20 52  1  0
 21 22  2  0
 21 23  1  0
 22 53  1  0
 23 24  2  0
 23 25  1  0
 25 26  1  0
 25 54  1  0
 26 27  2  0
 26 31  1  0
 27 28  1  0
 27 55  1  0
 28 29  2  0
 28 56  1  0
 29 30  1  0
 29 32  1  0
 30 31  2  0
 30 57  1  0
 31 58  1  0
 32 33  2  0
 32 36  1  0
 33 34  1  0
 34 35  2  0
 34 59  1  0
 35 36  1  0
 35 60  1  0
 36 61  1  0
 37 38  2  0
 37 62  1  0
 38 39  1  0
 39 40  1  0
 40 63  1  0
 40 64  1  0
 40 65  1  0
M  END
>  <s_m_entry_id>  (1) 
1030

>  <IC50[nM]>  (1) 
16.5

>  <s_m_Source_Path>  (1) 
/projects/mai/users/kmzp800_harry/pmx_colab/docking_jobs/syk

>  <s_m_Source_File>  (1) 
tnks2_lig.sdf

>  <i_m_Source_File_Index>  (1) 
44

>  <s_m_job_name>  (1) 
glide-dock_SP_tnks2_core_const

>  <r_i_docking_score>  (1) 
-7.92574920945951

>  <r_i_glide_gscore>  (1) 
-7.92574920945951

>  <r_i_glide_emodel>  (1) 
-75.2167789893091

>  <index_string>  (1) 
43:0:0

$$$$
