42:0:0
     RDKit          3D

 52 57  0  0  1  0  0  0  0  0999 V2000
    5.8330   -0.4330   16.2510 C   0  0  0  0  0  0  0  0  0  0  0  0
    4.5810   -0.9550   16.2350 N   0  0  0  0  0  0  0  0  0  0  0  0
    3.9670   -0.2710   15.2550 C   0  0  0  0  0  0  0  0  0  0  0  0
    2.6490   -0.4240   14.8300 C   0  0  0  0  0  0  0  0  0  0  0  0
    1.7910   -1.3940   15.4500 N   0  0  0  0  0  0  0  0  0  0  0  0
    2.2160    0.3750   13.8120 N   0  0  0  0  0  0  0  0  0  0  0  0
    3.0270    1.3040   13.2130 C   0  0  0  0  0  0  0  0  0  0  0  0
    4.3550    1.4380   13.6640 C   0  0  0  0  0  0  0  0  0  0  0  0
    4.7590    0.6330   14.6740 N   0  0  0  0  0  0  0  0  0  0  0  0
    5.9510    0.5590   15.2800 C   0  0  0  0  0  0  0  0  0  0  0  0
    2.5070    2.1440   12.1160 C   0  0  0  0  0  0  0  0  0  0  0  0
    3.4010    2.6830   11.1540 C   0  0  0  0  0  0  0  0  0  0  0  0
    2.9360    3.4870   10.0980 C   0  0  0  0  0  0  0  0  0  0  0  0
    1.5680    3.7280   10.0380 C   0  0  0  0  0  0  0  0  0  0  0  0
    0.8090    4.4550    9.1520 C   0  0  0  0  0  0  0  0  0  0  0  0
   -0.4790    4.3540    9.5670 N   0  0  0  0  0  0  0  0  0  0  0  0
   -0.5500    3.6020   10.6630 N   0  0  0  0  0  0  0  0  0  0  0  0
    0.7000    3.2180   10.9530 C   0  0  0  0  0  0  0  0  0  0  0  0
    1.1240    2.4190   12.0110 C   0  0  0  0  0  0  0  0  0  0  0  0
    0.4210   -1.6700   15.1260 C   0  0  0  0  0  0  0  0  0  0  0  0
   -0.1650   -2.8350   15.6280 C   0  0  0  0  0  0  0  0  0  0  0  0
   -1.4970   -3.1390   15.3350 C   0  0  0  0  0  0  0  0  0  0  0  0
   -2.2690   -2.2800   14.5370 C   0  0  0  0  0  0  0  0  0  0  0  0
   -1.6740   -1.1120   14.0320 C   0  0  0  0  0  0  0  0  0  0  0  0
   -0.3420   -0.8090   14.3260 C   0  0  0  0  0  0  0  0  0  0  0  0
   -3.6400   -2.5970   14.2280 N   0  0  0  0  0  0  0  0  0  0  0  0
   -4.6810   -2.4640   15.2500 C   0  0  0  0  0  0  0  0  0  0  0  0
   -5.7950   -3.4750   14.9790 C   0  0  0  0  0  0  0  0  0  0  0  0
   -6.2590   -3.3310   13.6590 O   0  0  0  0  0  0  0  0  0  0  0  0
   -5.2340   -3.8110   12.8260 C   0  0  0  0  0  0  0  0  0  0  0  0
   -4.0540   -2.8390   12.8430 C   0  0  0  0  0  0  0  0  0  0  0  0
    6.6380   -0.7473   16.9316 H   0  0  0  0  0  0  0  0  0  0  0  0
    2.2042   -1.9526   16.2103 H   0  0  0  0  0  0  0  0  0  0  0  0
    5.0391    2.1709   13.2113 H   0  0  0  0  0  0  0  0  0  0  0  0
    6.8441    1.1608   15.0560 H   0  0  0  0  0  0  0  0  0  0  0  0
    4.4767    2.4680   11.2360 H   0  0  0  0  0  0  0  0  0  0  0  0
    3.6254    3.9074    9.3511 H   0  0  0  0  0  0  0  0  0  0  0  0
    1.1749    5.0110    8.2762 H   0  0  0  0  0  0  0  0  0  0  0  0
   -1.4030    3.3614   11.1877 H   0  0  0  0  0  0  0  0  0  0  0  0
    0.4071    2.0150   12.7410 H   0  0  0  0  0  0  0  0  0  0  0  0
    0.4257   -3.5167   16.2575 H   0  0  0  0  0  0  0  0  0  0  0  0
   -1.9453   -4.0610   15.7338 H   0  0  0  0  0  0  0  0  0  0  0  0
   -2.2616   -0.4301   13.3998 H   0  0  0  0  0  0  0  0  0  0  0  0
    0.1103    0.1109   13.9271 H   0  0  0  0  0  0  0  0  0  0  0  0
   -4.2466   -2.6546   16.2425 H   0  0  0  0  0  0  0  0  0  0  0  0
   -5.0956   -1.4456   15.2200 H   0  0  0  0  0  0  0  0  0  0  0  0
   -5.4054   -4.4940   15.1199 H   0  0  0  0  0  0  0  0  0  0  0  0
   -6.6257   -3.2956   15.6774 H   0  0  0  0  0  0  0  0  0  0  0  0
   -4.9013   -4.7954   13.1868 H   0  0  0  0  0  0  0  0  0  0  0  0
   -5.6145   -3.9019   11.7979 H   0  0  0  0  0  0  0  0  0  0  0  0
   -4.3554   -1.8883   12.3790 H   0  0  0  0  0  0  0  0  0  0  0  0
   -3.2142   -3.2720   12.2797 H   0  0  0  0  0  0  0  0  0  0  0  0
  1  2  1  0
  1 10  2  0
  2  3  2  0
  3  4  1  0
  3  9  1  0
  4  5  1  0
  4  6  2  0
  5 20  1  0
  6  7  1  0
  7  8  2  0
  7 11  1  0
  8  9  1  0
  9 10  1  0
 11 12  2  0
 11 19  1  0
 12 13  1  0
 13 14  2  0
 14 18  1  0
 14 15  1  0
 15 16  2  0
 16 17  1  0
 17 18  1  0
 18 19  2  0
 20 21  2  0
 20 25  1  0
 21 22  1  0
 22 23  2  0
 23 24  1  0
 23 26  1  0
 24 25  2  0
 26 27  1  0
 26 31  1  0
 27 28  1  0
 28 29  1  0
 29 30  1  0
 30 31  1  0
  1 32  1  0
  5 33  1  0
  8 34  1  0
 10 35  1  0
 12 36  1  0
 13 37  1  0
 15 38  1  0
 17 39  1  0
 19 40  1  0
 21 41  1  0
 22 42  1  0
 24 43  1  0
 25 44  1  0
 27 45  1  0
 27 46  1  0
 28 47  1  0
 28 48  1  0
 30 49  1  0
 30 50  1  0
 31 51  1  0
 31 52  1  0
M  END
>  <s_m_entry_id>  (1) 
1206

>  <MODEL>  (1) 
1

>  <REMARK>  (1) 
 VINA RESULT:    -9.647      0.000      0.000
 INTER + INTRA:         -11.834
 INTER:                 -11.567
 INTRA:                  -0.267
 UNBOUND:                -0.495
  Name = /scratch/kmzp800/tmplg7dgzx4/tmpfouv42pg.pdb
  3 active torsions:
  status: ('A' for Active; 'I' for Inactive)
    1  A    between atoms: N2_5  and  C4_6
    2  A    between atoms: C7_9  and  N3_10
    3  A    between atoms: C14_19  and  C15_20
                            x       y       z     vdW  Elec       q    Type
                         _______ _______ _______ _____ _____    ______ ____

>  <TORSDO>  (1) 
F 3

>  <grid_id>  (1) 
syk-prepared

>  <grid_path>  (1) 
syk_vina.pdbqt

>  <grid_filename>  (1) 
syk_vina.pdbqt

>  <docking_score>  (1) 
-9.647

>  <compound_name>  (1) 
CHEMBL3265032

>  <index_string>  (1) 
42:0:0

>  <s_m_Source_Path>  (1) 
/projects/mai/users/kmzp800_harry/pmx_colab/docking_jobs/syk/vina_prep/output

>  <s_m_Source_File>  (1) 
ptp1b_docked_conformers.sdf

>  <i_m_Source_File_Index>  (1) 
1030

$$$$
