26:0:0
     RDKit          3D

 60 64  0  0  1  0  0  0  0  0999 V2000
    8.3410    4.8073   13.3977 C   0  0  0  0  0  0  0  0  0  0  0  0
    7.1405    4.4032   14.0294 O   0  0  0  0  0  0  0  0  0  0  0  0
    6.0287    4.2542   13.2303 C   0  0  0  0  0  0  0  0  0  0  0  0
    5.6840    5.1755   12.2171 C   0  0  0  0  0  0  0  0  0  0  0  0
    4.4741    5.0470   11.5138 C   0  0  0  0  0  0  0  0  0  0  0  0
    3.6024    3.9723   11.7727 C   0  0  0  0  0  0  0  0  0  0  0  0
    2.3902    3.9437   11.0574 N   0  0  0  0  0  0  0  0  0  0  0  0
    1.1646    3.3178   11.3445 C   0  0  0  0  0  0  0  0  0  0  0  0
    1.1020    2.4048   12.2666 N   0  0  0  0  0  0  0  0  0  0  0  0
   -0.0728    1.7366   12.5191 C   0  0  0  0  0  0  0  0  0  0  0  0
   -1.2360    2.0275   11.8426 C   0  0  0  0  0  0  0  0  0  0  0  0
   -1.1783    2.9863   10.8785 N   0  0  0  0  0  0  0  0  0  0  0  0
   -2.1442    3.4874   10.0248 C   0  0  0  0  0  0  0  0  0  0  0  0
   -1.5217    4.4194    9.2388 C   0  0  0  0  0  0  0  0  0  0  0  0
   -0.1814    4.5385    9.5761 N   0  0  0  0  0  0  0  0  0  0  0  0
    0.0212    3.6739   10.5732 C   0  0  0  0  0  0  0  0  0  0  0  0
    0.0319    0.6574   13.5328 C   0  0  0  0  0  0  0  0  0  0  0  0
    1.1105    0.6364   14.4479 C   0  0  0  0  0  0  0  0  0  0  0  0
    1.2635   -0.3965   15.3861 C   0  0  0  0  0  0  0  0  0  0  0  0
    0.3291   -1.4342   15.4352 C   0  0  0  0  0  0  0  0  0  0  0  0
   -0.7746   -1.4432   14.5547 C   0  0  0  0  0  0  0  0  0  0  0  0
   -0.9121   -0.3951   13.6124 C   0  0  0  0  0  0  0  0  0  0  0  0
   -1.7761   -2.5605   14.6020 C   0  0  0  0  0  0  0  0  0  0  0  0
   -2.9014   -2.4139   14.1227 O   0  0  0  0  0  0  0  0  0  0  0  0
   -1.3010   -3.6837   15.1655 N   0  0  0  0  0  0  0  0  0  0  0  0
   -1.7866   -5.0091   15.1150 C   0  0  0  0  0  0  0  0  0  0  0  0
   -0.8949   -6.0060   15.5522 C   0  0  0  0  0  0  0  0  0  0  0  0
   -1.2292   -7.3633   15.4196 C   0  0  0  0  0  0  0  0  0  0  0  0
   -2.4538   -7.7432   14.8317 C   0  0  0  0  0  0  0  0  0  0  0  0
   -3.3829   -6.7413   14.4766 C   0  0  0  0  0  0  0  0  0  0  0  0
   -3.0582   -5.3782   14.6177 C   0  0  0  0  0  0  0  0  0  0  0  0
   -2.7439   -9.1887   14.5506 C   0  0  0  0  0  0  0  0  0  0  0  0
   -1.9699  -10.0574   15.0170 O   0  0  0  0  0  0  0  0  0  0  0  0
   -3.7224   -9.4617   13.8173 O   0  0  0  0  0  0  0  0  0  0  0  0
    4.0075    2.9906   12.7088 C   0  0  0  0  0  0  0  0  0  0  0  0
    5.2050    3.1321   13.4517 C   0  0  0  0  0  0  0  0  0  0  0  0
    5.6318    2.2145   14.3891 O   0  0  0  0  0  0  0  0  0  0  0  0
    5.0995    0.8987   14.3279 C   0  0  0  0  0  0  0  0  0  0  0  0
    9.1824    4.4343   13.9805 H   0  0  0  0  0  0  0  0  0  0  0  0
    8.4367    4.4097   12.3826 H   0  0  0  0  0  0  0  0  0  0  0  0
    8.4302    5.8938   13.3985 H   0  0  0  0  0  0  0  0  0  0  0  0
    6.3314    6.0039   11.9905 H   0  0  0  0  0  0  0  0  0  0  0  0
    4.2067    5.8009   10.7881 H   0  0  0  0  0  0  0  0  0  0  0  0
    2.2876    4.6669   10.3597 H   0  0  0  0  0  0  0  0  0  0  0  0
   -2.1847    1.5328   12.0010 H   0  0  0  0  0  0  0  0  0  0  0  0
   -3.1558    3.1188   10.0571 H   0  0  0  0  0  0  0  0  0  0  0  0
   -1.9408    5.0215    8.4457 H   0  0  0  0  0  0  0  0  0  0  0  0
    1.8442    1.4252   14.4396 H   0  0  0  0  0  0  0  0  0  0  0  0
    2.0996   -0.3958   16.0707 H   0  0  0  0  0  0  0  0  0  0  0  0
    0.4768   -2.2012   16.1837 H   0  0  0  0  0  0  0  0  0  0  0  0
   -1.7425   -0.4237   12.9232 H   0  0  0  0  0  0  0  0  0  0  0  0
   -0.3735   -3.5981   15.5513 H   0  0  0  0  0  0  0  0  0  0  0  0
    0.0683   -5.7424   15.9654 H   0  0  0  0  0  0  0  0  0  0  0  0
   -0.5181   -8.1063   15.7422 H   0  0  0  0  0  0  0  0  0  0  0  0
   -4.3467   -7.0109   14.0725 H   0  0  0  0  0  0  0  0  0  0  0  0
   -3.7826   -4.6431   14.3048 H   0  0  0  0  0  0  0  0  0  0  0  0
    3.3965    2.1226   12.8771 H   0  0  0  0  0  0  0  0  0  0  0  0
    5.6422    0.2585   15.0248 H   0  0  0  0  0  0  0  0  0  0  0  0
    4.0491    0.8754   14.6175 H   0  0  0  0  0  0  0  0  0  0  0  0
    5.2076    0.4696   13.3296 H   0  0  0  0  0  0  0  0  0  0  0  0
  1  2  1  0
  1 39  1  0
  1 40  1  0
  1 41  1  0
  2  3  1  0
  3  4  2  0
  3 36  1  0
  4  5  1  0
  4 42  1  0
  5  6  2  0
  5 43  1  0
  6  7  1  0
  6 35  1  0
  7  8  1  0
  7 44  1  0
  8  9  2  0
  8 16  1  0
  9 10  1  0
 10 11  2  0
 10 17  1  0
 11 12  1  0
 11 45  1  0
 12 13  1  0
 12 16  1  0
 13 14  2  0
 13 46  1  0
 14 15  1  0
 14 47  1  0
 15 16  2  0
 17 18  2  0
 17 22  1  0
 18 19  1  0
 18 48  1  0
 19 20  2  0
 19 49  1  0
 20 21  1  0
 20 50  1  0
 21 22  2  0
 21 23  1  0
 22 51  1  0
 23 24  2  0
 23 25  1  0
 25 26  1  0
 25 52  1  0
 26 27  2  0
 26 31  1  0
 27 28  1  0
 27 53  1  0
 28 29  2  0
 28 54  1  0
 29 30  1  0
 29 32  1  0
 30 31  2  0
 30 55  1  0
 31 56  1  0
 32 33  2  0
 32 34  1  0
 35 36  2  0
 35 57  1  0
 36 37  1  0
 37 38  1  0
 38 58  1  0
 38 59  1  0
 38 60  1  0
M  CHG  1  34  -1
M  END
>  <s_m_entry_id>  (1) 
706

>  <IC50[nM]>  (1) 
0.84

>  <s_m_Source_Path>  (1) 
/projects/mai/users/kmzp800_harry/pmx_colab/docking_jobs/syk

>  <s_m_Source_File>  (1) 
tnks2_lig.sdf

>  <i_m_Source_File_Index>  (1) 
27

>  <s_m_job_name>  (1) 
glide-dock_SP_tnks2_no_const

>  <r_i_docking_score>  (1) 
-7.09356602651376

>  <r_i_glide_gscore>  (1) 
-7.09356602651376

>  <r_i_glide_emodel>  (1) 
-87.0453251416833

>  <index_string>  (1) 
26:0:0

$$$$
