4:0:0
     RDKit          3D

 43 47  0  0  1  0  0  0  0  0999 V2000
    1.0219    4.5414    8.9803 C   0  0  0  0  0  0  0  0  0  0  0  0
   -0.3569    4.7943    8.7471 O   0  0  0  0  0  0  0  0  0  0  0  0
   -1.2854    4.0509    9.4460 C   0  0  0  0  0  0  0  0  0  0  0  0
   -2.6415    4.3286    9.1916 C   0  0  0  0  0  0  0  0  0  0  0  0
   -3.6537    3.5958    9.8352 C   0  0  0  0  0  0  0  0  0  0  0  0
   -3.3160    2.5728   10.7384 C   0  0  0  0  0  0  0  0  0  0  0  0
   -1.9672    2.2796   11.0276 C   0  0  0  0  0  0  0  0  0  0  0  0
   -1.7234    1.2056   11.9074 N   0  0  0  0  0  0  0  0  0  0  0  0
   -0.6050    0.8665   12.6894 C   0  0  0  0  0  0  0  0  0  0  0  0
    0.4865    1.5717   12.6178 N   0  0  0  0  0  0  0  0  0  0  0  0
    1.5942    1.2265   13.3636 C   0  0  0  0  0  0  0  0  0  0  0  0
    1.5816    0.1442   14.2173 C   0  0  0  0  0  0  0  0  0  0  0  0
    0.4321   -0.5759   14.3172 N   0  0  0  0  0  0  0  0  0  0  0  0
    0.1028   -1.6806   15.0794 C   0  0  0  0  0  0  0  0  0  0  0  0
   -1.1960   -1.9867   14.7814 C   0  0  0  0  0  0  0  0  0  0  0  0
   -1.7122   -1.0962   13.8470 N   0  0  0  0  0  0  0  0  0  0  0  0
   -0.7179   -0.2521   13.5623 C   0  0  0  0  0  0  0  0  0  0  0  0
    2.7949    2.0843   13.1562 C   0  0  0  0  0  0  0  0  0  0  0  0
    4.0698    1.7318   13.6711 C   0  0  0  0  0  0  0  0  0  0  0  0
    5.2090    2.5403   13.4627 C   0  0  0  0  0  0  0  0  0  0  0  0
    5.1311    3.7164   12.6865 C   0  0  0  0  0  0  0  0  0  0  0  0
    6.0214    4.7361   12.2173 C   0  0  0  0  0  0  0  0  0  0  0  0
    5.3973    5.6038   11.4527 N   0  0  0  0  0  0  0  0  0  0  0  0
    4.0943    5.2303   11.4669 N   0  0  0  0  0  0  0  0  0  0  0  0
    3.8564    4.0661   12.1744 C   0  0  0  0  0  0  0  0  0  0  0  0
    2.7101    3.2908   12.4188 C   0  0  0  0  0  0  0  0  0  0  0  0
   -0.9585    3.0315   10.3773 C   0  0  0  0  0  0  0  0  0  0  0  0
    1.6211    5.2080    8.3595 H   0  0  0  0  0  0  0  0  0  0  0  0
    1.2900    4.7343   10.0196 H   0  0  0  0  0  0  0  0  0  0  0  0
    1.2916    3.5167    8.7181 H   0  0  0  0  0  0  0  0  0  0  0  0
   -2.9040    5.1031    8.4840 H   0  0  0  0  0  0  0  0  0  0  0  0
   -4.6924    3.8114    9.6208 H   0  0  0  0  0  0  0  0  0  0  0  0
   -4.1058    2.0023   11.2013 H   0  0  0  0  0  0  0  0  0  0  0  0
   -2.4902    0.5612   12.0314 H   0  0  0  0  0  0  0  0  0  0  0  0
    2.4124   -0.1794   14.8304 H   0  0  0  0  0  0  0  0  0  0  0  0
    0.8223   -2.1310   15.7505 H   0  0  0  0  0  0  0  0  0  0  0  0
   -1.8072   -2.7852   15.1793 H   0  0  0  0  0  0  0  0  0  0  0  0
    4.2034    0.8248   14.2409 H   0  0  0  0  0  0  0  0  0  0  0  0
    6.1616    2.2411   13.8748 H   0  0  0  0  0  0  0  0  0  0  0  0
    7.0868    4.8363   12.3748 H   0  0  0  0  0  0  0  0  0  0  0  0
    3.4018    5.7939   10.9941 H   0  0  0  0  0  0  0  0  0  0  0  0
    1.7678    3.6270   12.0173 H   0  0  0  0  0  0  0  0  0  0  0  0
    0.0748    2.8042   10.5583 H   0  0  0  0  0  0  0  0  0  0  0  0
  1  2  1  0
  1 28  1  0
  1 29  1  0
  1 30  1  0
  2  3  1  0
  3  4  2  0
  3 27  1  0
  4  5  1  0
  4 31  1  0
  5  6  2  0
  5 32  1  0
  6  7  1  0
  6 33  1  0
  7  8  1  0
  7 27  2  0
  8  9  1  0
  8 34  1  0
  9 10  2  0
  9 17  1  0
 10 11  1  0
 11 12  2  0
 11 18  1  0
 12 13  1  0
 12 35  1  0
 13 14  1  0
 13 17  1  0
 14 15  2  0
 14 36  1  0
 15 16  1  0
 15 37  1  0
 16 17  2  0
 18 19  2  0
 18 26  1  0
 19 20  1  0
 19 38  1  0
 20 21  2  0
 20 39  1  0
 21 22  1  0
 21 25  1  0
 22 23  2  0
 22 40  1  0
 23 24  1  0
 24 25  1  0
 24 41  1  0
 25 26  2  0
 26 42  1  0
 27 43  1  0
M  END
>  <s_m_entry_id>  (1) 
684

>  <IC50[nM]>  (1) 
8.5

>  <s_m_Source_Path>  (1) 
/projects/mai/users/kmzp800_harry/pmx_colab/docking_jobs/syk

>  <s_m_Source_File>  (1) 
tnks2_lig.sdf

>  <i_m_Source_File_Index>  (1) 
5

>  <s_m_job_name>  (1) 
glide-dock_SP_tnks2_no_const

>  <r_i_docking_score>  (1) 
-6.40573086632063

>  <r_i_glide_gscore>  (1) 
-6.40573086632063

>  <r_i_glide_emodel>  (1) 
-60.8057677671665

>  <index_string>  (1) 
4:0:0

$$$$
