23:0:0
     RDKit          3D

 58 61  0  0  1  0  0  0  0  0999 V2000
   34.6287   35.0726   21.1450 C   0  0  0  0  0  0  0  0  0  0  0  0
   34.0795   38.9836   23.8157 C   0  0  0  0  0  0  0  0  0  0  0  0
   34.7288   37.8991   21.4506 C   0  0  0  0  0  0  0  0  0  0  0  0
   35.0437   37.2809   20.1705 C   0  0  0  0  0  0  0  0  0  0  0  0
   34.3967   37.0778   22.5470 C   0  0  0  0  0  0  0  0  0  0  0  0
   34.7140   39.2899   21.6518 C   0  0  0  0  0  0  0  0  0  0  0  0
   34.9961   35.9419   20.0316 C   0  0  0  0  0  0  0  0  0  0  0  0
   34.3941   39.8378   22.8431 N   0  0  0  0  0  0  0  0  0  0  0  0
   34.5512   33.8589   20.9775 O   0  0  0  0  0  0  0  0  0  0  0  0
   34.4057   35.6535   22.3604 N   0  0  0  0  0  0  0  0  0  0  0  0
   34.0724   37.6553   23.7234 N   0  0  0  0  0  0  0  0  0  0  0  0
   33.7400   39.5492   25.0276 N   0  0  0  0  0  0  0  0  0  0  0  0
   35.2866   37.9283   19.3420 H   0  0  0  0  0  0  0  0  0  0  0  0
   34.9542   39.9497   20.8368 H   0  0  0  0  0  0  0  0  0  0  0  0
   33.7677   40.5606   25.0893 H   0  0  0  0  0  0  0  0  0  0  0  0
   34.1681   34.7791   23.5312 C   0  0  0  0  0  0  0  0  0  0  0  0
   34.9751   34.0478   23.6084 H   0  0  0  0  0  0  0  0  0  0  0  0
   34.2325   35.3336   24.4654 H   0  0  0  0  0  0  0  0  0  0  0  0
   32.8200   34.0379   23.4467 C   0  0  0  0  0  0  0  0  0  0  0  0
   32.0849   34.6718   22.9479 H   0  0  0  0  0  0  0  0  0  0  0  0
   32.9275   33.1585   22.8122 H   0  0  0  0  0  0  0  0  0  0  0  0
   32.2283   33.5885   24.7907 C   0  0  0  0  0  0  0  0  0  0  0  0
   31.3391   32.9859   24.6084 H   0  0  0  0  0  0  0  0  0  0  0  0
   32.9334   32.9751   25.3523 H   0  0  0  0  0  0  0  0  0  0  0  0
   31.7279   35.0242   25.8353 S   0  0  0  0  0  0  0  0  0  0  0  0
   32.8445   35.3441   26.7360 O   0  0  0  0  0  0  0  0  0  0  0  0
   31.1665   36.0690   24.9659 O   0  0  0  0  0  0  0  0  0  0  0  0
   30.3646   34.3245   26.8459 C   0  0  0  0  0  0  0  0  0  0  0  0
   29.9606   35.1071   27.4892 H   0  0  0  0  0  0  0  0  0  0  0  0
   29.5646   33.9769   26.1927 H   0  0  0  0  0  0  0  0  0  0  0  0
   30.7365   33.5035   27.4563 H   0  0  0  0  0  0  0  0  0  0  0  0
   33.3487   38.5172   28.6770 C   0  0  0  0  0  0  0  0  0  0  0  0
   33.9671   39.2256   27.4613 C   0  0  0  0  0  0  0  0  0  0  0  0
   33.2119   38.8356   26.1849 C   0  0  0  0  0  0  0  0  0  0  0  0
   31.7143   39.1169   26.3814 C   0  0  0  0  0  0  0  0  0  0  0  0
   31.2068   38.4246   27.6588 C   0  0  0  0  0  0  0  0  0  0  0  0
   31.9689   38.8541   28.7814 O   0  0  0  0  0  0  0  0  0  0  0  0
   33.4678   37.4352   28.6013 H   0  0  0  0  0  0  0  0  0  0  0  0
   33.8559   38.8316   29.5888 H   0  0  0  0  0  0  0  0  0  0  0  0
   35.0210   38.9597   27.3734 H   0  0  0  0  0  0  0  0  0  0  0  0
   33.9224   40.3062   27.6095 H   0  0  0  0  0  0  0  0  0  0  0  0
   33.3375   37.7627   26.0484 H   0  0  0  0  0  0  0  0  0  0  0  0
   31.5404   40.1910   26.4576 H   0  0  0  0  0  0  0  0  0  0  0  0
   31.1443   38.7682   25.5207 H   0  0  0  0  0  0  0  0  0  0  0  0
   31.2644   37.3409   27.5680 H   0  0  0  0  0  0  0  0  0  0  0  0
   30.1597   38.6623   27.8309 H   0  0  0  0  0  0  0  0  0  0  0  0
   35.2098   35.3078   18.8362 O   0  0  0  0  0  0  0  0  0  0  0  0
   37.9525   36.6171   15.9652 C   0  0  0  0  0  0  0  0  0  0  0  0
   38.4245   36.3491   17.2651 C   0  0  0  0  0  0  0  0  0  0  0  0
   37.5111   35.9944   18.2792 C   0  0  0  0  0  0  0  0  0  0  0  0
   36.1532   35.7557   17.9502 C   0  0  0  0  0  0  0  0  0  0  0  0
   35.7519   35.8710   16.6149 C   0  0  0  0  0  0  0  0  0  0  0  0
   36.6118   36.3887   15.6461 C   0  0  0  0  0  0  0  0  0  0  0  0
   38.7589   37.1498   15.0328 F   0  0  0  0  0  0  0  0  0  0  0  0
   39.4598   36.5401   17.5075 H   0  0  0  0  0  0  0  0  0  0  0  0
   37.9482   35.8966   19.5541 F   0  0  0  0  0  0  0  0  0  0  0  0
   34.7296   35.6395   16.3534 H   0  0  0  0  0  0  0  0  0  0  0  0
   36.2279   36.6899   14.6887 H   0  0  0  0  0  0  0  0  0  0  0  0
  1  7  1  0
  1  9  2  0
  1 10  1  0
  2  8  1  0
  2 11  2  0
  2 12  1  0
  3  4  1  0
  3  5  2  0
  3  6  1  0
  4  7  2  0
  4 13  1  0
  5 10  1  0
  5 11  1  0
  6  8  2  0
  6 14  1  0
  7 47  1  0
 10 16  1  0
 12 15  1  0
 12 34  1  0
 16 17  1  0
 16 18  1  0
 16 19  1  0
 19 20  1  0
 19 21  1  0
 19 22  1  0
 22 23  1  0
 22 24  1  0
 22 25  1  0
 25 26  2  0
 25 27  2  0
 25 28  1  0
 28 29  1  0
 28 30  1  0
 28 31  1  0
 32 33  1  0
 32 37  1  0
 32 38  1  0
 32 39  1  0
 33 34  1  0
 33 40  1  0
 33 41  1  0
 34 35  1  0
 34 42  1  0
 35 36  1  0
 35 43  1  0
 35 44  1  0
 36 37  1  0
 36 45  1  0
 36 46  1  0
 47 51  1  0
 48 49  2  0
 48 53  1  0
 48 54  1  0
 49 50  1  0
 49 55  1  0
 50 51  2  0
 50 56  1  0
 51 52  1  0
 52 53  2  0
 52 57  1  0
 53 58  1  0
M  END
>  <s_m_entry_id>  (1) 
841

>  <s_m_Source_Path>  (1) 
/projects/mai/users/kmzp800_harry/pmx_colab/docking_jobs/p38/glide-dock_SP_p38_mcs_docking_2

>  <s_m_Source_File>  (1) 
glide-dock_SP_p38_mcs_docking_2_pv.maegz

>  <i_m_Source_File_Index>  (1) 
25

>  <s_pdb_PDB_TITLE>  (1) 
MX MODEL

>  <r_i_docking_score>  (1) 
-7.06736902862137

>  <r_i_glide_gscore>  (1) 
-7.06736902862137

>  <r_i_glide_emodel>  (1) 
-46.1683749931057

>  <index_string>  (1) 
23:0:0

$$$$
