1:0:0
     RDKit          3D

 41 43  0  0  1  0  0  0  0  0999 V2000
   41.7940   11.1050   15.7140 C   0  0  0  0  0  0  0  0  0  0  0  0
   42.7370   10.4780   16.5320 C   0  0  0  0  0  0  0  0  0  0  0  0
   42.5050    9.1880   17.0130 C   0  0  0  0  0  0  0  0  0  0  0  0
   41.3250    8.5180   16.6750 C   0  0  0  0  0  0  0  0  0  0  0  0
   40.3640    9.1290   15.8590 C   0  0  0  0  0  0  0  0  0  0  0  0
   40.6110   10.4250   15.3850 C   0  0  0  0  0  0  0  0  0  0  0  0
   39.1130    8.4360   15.4700 C   0  0  0  0  0  0  0  0  0  0  0  0
   38.6710    8.1290   13.8730 S   0  0  0  0  0  0  0  0  0  0  0  0
   37.2230    7.3430   14.1930 C   0  0  0  0  0  0  0  0  0  0  0  0
   37.0450    7.3270   15.5820 C   0  0  0  0  0  0  0  0  0  0  0  0
   38.1050    7.9140   16.2950 C   0  0  0  0  0  0  0  0  0  0  0  0
   38.0580    8.0230   18.2100 Br  0  0  0  0  0  0  0  0  0  0  0  0
   36.4060    6.6930   13.1550 C   0  0  0  0  0  0  0  0  0  0  0  0
   36.8070    5.6250   12.6220 O   0  0  0  0  0  0  0  0  0  0  0  0
   35.1640    7.2020   12.8000 O   0  0  0  0  0  0  0  0  0  0  0  0
   35.9230    6.8190   16.2510 O   0  0  0  0  0  0  0  0  0  0  0  0
   35.6880    5.4300   16.4430 C   0  0  0  0  0  0  0  0  0  0  0  0
   34.3580    5.0490   15.8900 C   0  0  0  0  0  0  0  0  0  0  0  0
   33.3090    5.3250   16.5270 O   0  0  0  0  0  0  0  0  0  0  0  0
   34.2730    4.4290   14.6510 O   0  0  0  0  0  0  0  0  0  0  0  0
   42.0540   12.3970   15.2430 O   0  0  0  0  0  0  0  0  0  0  0  0
   41.2020   13.0870   14.3310 C   0  0  0  0  0  0  0  0  0  0  0  0
   41.9560   17.3090   14.4250 C   0  0  0  0  0  0  0  0  0  0  0  0
   40.7820   16.8200   13.8450 C   0  0  0  0  0  0  0  0  0  0  0  0
   40.5360   15.4440   13.8190 C   0  0  0  0  0  0  0  0  0  0  0  0
   41.4650   14.5550   14.3710 C   0  0  0  0  0  0  0  0  0  0  0  0
   42.6390   15.0470   14.9520 C   0  0  0  0  0  0  0  0  0  0  0  0
   42.8850   16.4220   14.9780 C   0  0  0  0  0  0  0  0  0  0  0  0
   43.6663   11.0029   16.7983 H   0  0  0  0  0  0  0  0  0  0  0  0
   43.2501    8.6989   17.6576 H   0  0  0  0  0  0  0  0  0  0  0  0
   41.1495    7.5003   17.0539 H   0  0  0  0  0  0  0  0  0  0  0  0
   39.8648   10.9175   14.7442 H   0  0  0  0  0  0  0  0  0  0  0  0
   36.4727    4.8549   15.9296 H   0  0  0  0  0  0  0  0  0  0  0  0
   35.7036    5.2102   17.5207 H   0  0  0  0  0  0  0  0  0  0  0  0
   41.3865   12.7148   13.3125 H   0  0  0  0  0  0  0  0  0  0  0  0
   40.1558   12.9073   14.6195 H   0  0  0  0  0  0  0  0  0  0  0  0
   42.1492   18.3917   14.4465 H   0  0  0  0  0  0  0  0  0  0  0  0
   40.0518   17.5177   13.4091 H   0  0  0  0  0  0  0  0  0  0  0  0
   39.6111   15.0598   13.3641 H   0  0  0  0  0  0  0  0  0  0  0  0
   43.3693   14.3501   15.3889 H   0  0  0  0  0  0  0  0  0  0  0  0
   43.8094   16.8069   15.4334 H   0  0  0  0  0  0  0  0  0  0  0  0
  1  2  2  0
  1  6  1  0
  1 21  1  0
  2  3  1  0
  2 29  1  0
  3  4  2  0
  3 30  1  0
  4  5  1  0
  4 31  1  0
  5  6  2  0
  5  7  1  0
  6 32  1  0
  7 11  2  0
  7  8  1  0
  8  9  1  0
  9 10  2  0
  9 13  1  0
 10 16  1  0
 10 11  1  0
 11 12  1  0
 13 14  2  0
 13 15  1  0
 16 17  1  0
 17 18  1  0
 17 33  1  0
 17 34  1  0
 18 19  1  0
 18 20  2  0
 21 22  1  0
 22 26  1  0
 22 35  1  0
 22 36  1  0
 23 28  2  0
 23 24  1  0
 23 37  1  0
 24 25  2  0
 24 38  1  0
 25 26  1  0
 25 39  1  0
 26 27  2  0
 27 28  1  0
 27 40  1  0
 28 41  1  0
M  CHG  2  15  -1  19  -1
M  END
>  <s_m_entry_id>  (1) 
1347

>  <MODEL>  (1) 
1

>  <REMARK>  (1) 
 VINA RESULT:    -7.447      0.000      0.000
 INTER + INTRA:         -11.938
 INTER:                 -10.930
 INTRA:                  -1.008
 UNBOUND:                -1.008
  Name = /scratch/kmzp800/tmpzeiqq43b/tmpilzzk0_n.pdb
  8 active torsions:
  status: ('A' for Active; 'I' for Inactive)
    1  A    between atoms: C4_4  and  C5_5
    2  A    between atoms: C5_5  and  O1_6
    3  A    between atoms: O1_6  and  C6_7
    4  A    between atoms: C10_11  and  C11_12
    5  A    between atoms: C12_14  and  C13_15
    6  A    between atoms: C14_18  and  O4_19
    7  A    between atoms: O4_19  and  C15_20
    8  A    between atoms: C15_20  and  C16_21
                            x       y       z     vdW  Elec       q    Type
                         _______ _______ _______ _____ _____    ______ ____

>  <TORSDO>  (1) 
F 8

>  <grid_id>  (1) 
ptp1b-prepared

>  <grid_path>  (1) 
ptp1b_vina.pdbqt

>  <grid_filename>  (1) 
ptp1b_vina.pdbqt

>  <docking_score>  (1) 
-7.447

>  <compound_name>  (1) 
lig_23473

>  <index_string>  (1) 
1:0:0

>  <s_m_Source_Path>  (1) 
/projects/mai/users/kmzp800_harry/pmx_colab/docking_jobs/ptp1b/vina_prep

>  <s_m_Source_File>  (1) 
ptp1b_vina_naive_confs.sdf

>  <i_m_Source_File_Index>  (1) 
2

$$$$
