3:0:0
     RDKit          3D

 48 52  0  0  1  0  0  0  0  0999 V2000
   -4.1176   -1.8269   15.1848 C   0  0  0  0  0  0  0  0  0  0  0  0
   -3.4963   -0.9413   14.2636 O   0  0  0  0  0  0  0  0  0  0  0  0
   -2.1157   -0.9111   14.2169 C   0  0  0  0  0  0  0  0  0  0  0  0
   -1.2850   -1.7343   15.0168 C   0  0  0  0  0  0  0  0  0  0  0  0
    0.1152   -1.6232   14.9471 C   0  0  0  0  0  0  0  0  0  0  0  0
    0.7232   -0.7016   14.0739 C   0  0  0  0  0  0  0  0  0  0  0  0
    2.1291   -0.6551   14.0744 N   0  0  0  0  0  0  0  0  0  0  0  0
    3.0096    0.4105   13.8170 C   0  0  0  0  0  0  0  0  0  0  0  0
    2.6661    1.3802   13.0178 N   0  0  0  0  0  0  0  0  0  0  0  0
    3.5388    2.4213   12.8103 C   0  0  0  0  0  0  0  0  0  0  0  0
    4.7831    2.4918   13.3801 C   0  0  0  0  0  0  0  0  0  0  0  0
    5.1322    1.4893   14.2231 N   0  0  0  0  0  0  0  0  0  0  0  0
    6.2471    1.2926   15.0173 C   0  0  0  0  0  0  0  0  0  0  0  0
    6.0300    0.1458   15.7290 C   0  0  0  0  0  0  0  0  0  0  0  0
    4.7928   -0.3960   15.4177 N   0  0  0  0  0  0  0  0  0  0  0  0
    4.2654    0.4040   14.4903 C   0  0  0  0  0  0  0  0  0  0  0  0
    3.0509    3.4836   11.9235 C   0  0  0  0  0  0  0  0  0  0  0  0
    2.8009    3.2040   10.5669 C   0  0  0  0  0  0  0  0  0  0  0  0
    2.3263    4.1970    9.6888 C   0  0  0  0  0  0  0  0  0  0  0  0
    2.0876    5.5129   10.1446 C   0  0  0  0  0  0  0  0  0  0  0  0
    1.6298    6.7255    9.5269 C   0  0  0  0  0  0  0  0  0  0  0  0
    1.6264    7.6856   10.5051 C   0  0  0  0  0  0  0  0  0  0  0  0
    2.0301    7.1152   11.6987 N   0  0  0  0  0  0  0  0  0  0  0  0
    2.3455    5.7827   11.5215 C   0  0  0  0  0  0  0  0  0  0  0  0
    2.8272    4.7932   12.3988 C   0  0  0  0  0  0  0  0  0  0  0  0
   -0.1048    0.0941   13.2477 C   0  0  0  0  0  0  0  0  0  0  0  0
   -1.5204    0.0051   13.3222 C   0  0  0  0  0  0  0  0  0  0  0  0
   -2.3766    0.7808   12.5652 O   0  0  0  0  0  0  0  0  0  0  0  0
   -1.8159    1.6001   11.5479 C   0  0  0  0  0  0  0  0  0  0  0  0
   -5.2006   -1.7287   15.1066 H   0  0  0  0  0  0  0  0  0  0  0  0
   -3.8421   -1.5939   16.2134 H   0  0  0  0  0  0  0  0  0  0  0  0
   -3.8675   -2.8660   14.9704 H   0  0  0  0  0  0  0  0  0  0  0  0
   -1.6960   -2.4522   15.7105 H   0  0  0  0  0  0  0  0  0  0  0  0
    0.7217   -2.2511   15.5860 H   0  0  0  0  0  0  0  0  0  0  0  0
    2.5547   -1.3304   14.6941 H   0  0  0  0  0  0  0  0  0  0  0  0
    5.4773    3.3125   13.2344 H   0  0  0  0  0  0  0  0  0  0  0  0
    7.0638    1.9988   15.0099 H   0  0  0  0  0  0  0  0  0  0  0  0
    6.6658   -0.3310   16.4586 H   0  0  0  0  0  0  0  0  0  0  0  0
    2.9753    2.2008   10.2125 H   0  0  0  0  0  0  0  0  0  0  0  0
    2.1424    3.9508    8.6532 H   0  0  0  0  0  0  0  0  0  0  0  0
    1.3640    6.8515    8.4883 H   0  0  0  0  0  0  0  0  0  0  0  0
    1.3833    8.7383   10.4544 H   0  0  0  0  0  0  0  0  0  0  0  0
    2.1435    7.6628   12.5470 H   0  0  0  0  0  0  0  0  0  0  0  0
    3.0121    5.0339   13.4361 H   0  0  0  0  0  0  0  0  0  0  0  0
    0.3485    0.7765   12.5518 H   0  0  0  0  0  0  0  0  0  0  0  0
   -2.6186    2.0915   10.9990 H   0  0  0  0  0  0  0  0  0  0  0  0
   -1.1784    2.3790   11.9683 H   0  0  0  0  0  0  0  0  0  0  0  0
   -1.2425    1.0078   10.8320 H   0  0  0  0  0  0  0  0  0  0  0  0
  1  2  1  0
  1 30  1  0
  1 31  1  0
  1 32  1  0
  2  3  1  0
  3  4  2  0
  3 27  1  0
  4  5  1  0
  4 33  1  0
  5  6  2  0
  5 34  1  0
  6  7  1  0
  6 26  1  0
  7  8  1  0
  7 35  1  0
  8  9  2  0
  8 16  1  0
  9 10  1  0
 10 11  2  0
 10 17  1  0
 11 12  1  0
 11 36  1  0
 12 13  1  0
 12 16  1  0
 13 14  2  0
 13 37  1  0
 14 15  1  0
 14 38  1  0
 15 16  2  0
 17 18  2  0
 17 25  1  0
 18 19  1  0
 18 39  1  0
 19 20  2  0
 19 40  1  0
 20 21  1  0
 20 24  1  0
 21 22  2  0
 21 41  1  0
 22 23  1  0
 22 42  1  0
 23 24  1  0
 23 43  1  0
 24 25  2  0
 25 44  1  0
 26 27  2  0
 26 45  1  0
 27 28  1  0
 28 29  1  0
 29 46  1  0
 29 47  1  0
 29 48  1  0
M  END
>  <s_m_entry_id>  (1) 
683

>  <IC50[nM]>  (1) 
2.7

>  <s_m_Source_Path>  (1) 
/projects/mai/users/kmzp800_harry/pmx_colab/docking_jobs/syk

>  <s_m_Source_File>  (1) 
tnks2_lig.sdf

>  <i_m_Source_File_Index>  (1) 
4

>  <s_m_job_name>  (1) 
glide-dock_SP_tnks2_no_const

>  <r_i_docking_score>  (1) 
-7.17925370394437

>  <r_i_glide_gscore>  (1) 
-7.17925370394437

>  <r_i_glide_emodel>  (1) 
-64.6966709381975

>  <index_string>  (1) 
3:0:0

$$$$
