28:0:0
     RDKit          3D

 35 37  0  0  1  0  0  0  0  0999 V2000
   34.5460   35.1111   21.2452 C   0  0  0  0  0  0  0  0  0  0  0  0
   34.0468   39.1327   23.7478 C   0  0  0  0  0  0  0  0  0  0  0  0
   33.3435   38.9987   26.1418 C   0  0  0  0  0  0  0  0  0  0  0  0
   34.7343   37.9465   21.4498 C   0  0  0  0  0  0  0  0  0  0  0  0
   35.0975   37.2663   20.2158 C   0  0  0  0  0  0  0  0  0  0  0  0
   34.3242   37.1799   22.5567 C   0  0  0  0  0  0  0  0  0  0  0  0
   34.7703   39.3421   21.6022 C   0  0  0  0  0  0  0  0  0  0  0  0
   35.0139   35.9251   20.1216 C   0  0  0  0  0  0  0  0  0  0  0  0
   33.8441   34.9878   23.5936 C   0  0  0  0  0  0  0  0  0  0  0  0
   34.4289   39.9469   22.7615 N   0  0  0  0  0  0  0  0  0  0  0  0
   34.4162   33.8958   21.1250 O   0  0  0  0  0  0  0  0  0  0  0  0
   34.2640   35.7601   22.4128 N   0  0  0  0  0  0  0  0  0  0  0  0
   33.9844   37.8025   23.7019 N   0  0  0  0  0  0  0  0  0  0  0  0
   33.6690   39.7285   24.9287 N   0  0  0  0  0  0  0  0  0  0  0  0
   33.1806   39.6982   26.9605 H   0  0  0  0  0  0  0  0  0  0  0  0
   35.4071   37.8756   19.3815 H   0  0  0  0  0  0  0  0  0  0  0  0
   35.0751   39.9493   20.7699 H   0  0  0  0  0  0  0  0  0  0  0  0
   33.8023   33.9078   23.4547 H   0  0  0  0  0  0  0  0  0  0  0  0
   34.5240   35.1737   24.4314 H   0  0  0  0  0  0  0  0  0  0  0  0
   32.8463   35.3061   23.9062 H   0  0  0  0  0  0  0  0  0  0  0  0
   33.7578   40.7356   25.0070 H   0  0  0  0  0  0  0  0  0  0  0  0
   34.1515   38.3228   26.4272 H   0  0  0  0  0  0  0  0  0  0  0  0
   32.4322   38.4163   25.9975 H   0  0  0  0  0  0  0  0  0  0  0  0
   35.2884   35.2454   18.9629 O   0  0  0  0  0  0  0  0  0  0  0  0
   37.9120   36.6107   16.0046 C   0  0  0  0  0  0  0  0  0  0  0  0
   38.4212   36.3492   17.2959 C   0  0  0  0  0  0  0  0  0  0  0  0
   37.5384   36.0042   18.3334 C   0  0  0  0  0  0  0  0  0  0  0  0
   36.1776   35.7284   18.0408 C   0  0  0  0  0  0  0  0  0  0  0  0
   35.7462   35.8242   16.7141 C   0  0  0  0  0  0  0  0  0  0  0  0
   36.5684   36.3494   15.7130 C   0  0  0  0  0  0  0  0  0  0  0  0
   38.6853   37.1500   15.0496 F   0  0  0  0  0  0  0  0  0  0  0  0
   39.4538   36.5648   17.5146 H   0  0  0  0  0  0  0  0  0  0  0  0
   37.9997   35.9327   19.6015 F   0  0  0  0  0  0  0  0  0  0  0  0
   34.7297   35.5525   16.4705 H   0  0  0  0  0  0  0  0  0  0  0  0
   36.1769   36.5328   14.7270 H   0  0  0  0  0  0  0  0  0  0  0  0
  1  8  1  0
  1 11  2  0
  1 12  1  0
  2 10  1  0
  2 13  2  0
  2 14  1  0
  3 14  1  0
  3 15  1  0
  3 22  1  0
  3 23  1  0
  4  5  1  0
  4  6  2  0
  4  7  1  0
  5  8  2  0
  5 16  1  0
  6 12  1  0
  6 13  1  0
  7 10  2  0
  7 17  1  0
  8 24  1  0
  9 12  1  0
  9 18  1  0
  9 19  1  0
  9 20  1  0
 14 21  1  0
 24 28  1  0
 25 26  2  0
 25 30  1  0
 25 31  1  0
 26 27  1  0
 26 32  1  0
 27 28  2  0
 27 33  1  0
 28 29  1  0
 29 30  2  0
 29 34  1  0
 30 35  1  0
M  END
>  <s_m_entry_id>  (1) 
846

>  <s_m_Source_Path>  (1) 
/projects/mai/users/kmzp800_harry/pmx_colab/docking_jobs/p38/glide-dock_SP_p38_mcs_docking_2

>  <s_m_Source_File>  (1) 
glide-dock_SP_p38_mcs_docking_2_pv.maegz

>  <i_m_Source_File_Index>  (1) 
30

>  <s_pdb_PDB_TITLE>  (1) 
MX MODEL

>  <r_i_docking_score>  (1) 
-7.00713414247998

>  <r_i_glide_gscore>  (1) 
-7.00713414247998

>  <r_i_glide_emodel>  (1) 
-39.3957082234162

>  <index_string>  (1) 
28:0:0

$$$$
