17:0:0
     RDKit          3D

 31 33  0  0  1  0  0  0  0  0999 V2000
  -15.2026  -19.2594  -25.9344 C   0  0  0  0  0  0  0  0  0  0  0  0
  -14.7813  -19.8464  -27.1386 C   0  0  0  0  0  0  0  0  0  0  0  0
  -15.4515  -20.0889  -24.8202 C   0  0  0  0  0  0  0  0  0  0  0  0
  -14.5541  -21.2237  -27.2164 C   0  0  0  0  0  0  0  0  0  0  0  0
  -15.2439  -21.4775  -24.9112 C   0  0  0  0  0  0  0  0  0  0  0  0
  -14.8493  -17.0009  -26.7559 N   0  0  0  0  0  0  0  0  0  0  0  0
  -14.7837  -22.0633  -26.1044 C   0  0  0  0  0  0  0  0  0  0  0  0
  -15.0356  -15.6127  -26.6843 C   0  0  0  0  0  0  0  0  0  0  0  0
  -15.7601  -15.0238  -25.6204 C   0  0  0  0  0  0  0  0  0  0  0  0
  -15.2482  -12.8099  -26.4999 C   0  0  0  0  0  0  0  0  0  0  0  0
  -14.5357  -13.3948  -27.5607 C   0  0  0  0  0  0  0  0  0  0  0  0
  -15.8762  -13.6208  -25.5338 C   0  0  0  0  0  0  0  0  0  0  0  0
  -14.4481  -14.7939  -27.6638 C   0  0  0  0  0  0  0  0  0  0  0  0
  -16.3735  -15.9476  -24.6131 C   0  0  0  0  0  0  0  0  0  0  0  0
  -16.1165  -17.2436  -24.8119 N   0  0  0  0  0  0  0  0  0  0  0  0
  -15.3634  -17.7808  -25.8511 C   0  0  0  0  0  0  0  0  0  0  0  0
  -17.0633  -15.5727  -23.6723 O   0  0  0  0  0  0  0  0  0  0  0  0
  -14.5721  -19.2438  -28.0101 H   0  0  0  0  0  0  0  0  0  0  0  0
  -15.7978  -19.6791  -23.8856 H   0  0  0  0  0  0  0  0  0  0  0  0
  -14.1775  -21.5727  -28.1563 H   0  0  0  0  0  0  0  0  0  0  0  0
  -15.4280  -22.0998  -24.0510 H   0  0  0  0  0  0  0  0  0  0  0  0
  -14.0671  -12.7703  -28.3064 H   0  0  0  0  0  0  0  0  0  0  0  0
  -16.4304  -13.1652  -24.7268 H   0  0  0  0  0  0  0  0  0  0  0  0
  -16.5474  -17.8950  -24.1679 H   0  0  0  0  0  0  0  0  0  0  0  0
  -13.8985  -15.2410  -28.4792 H   0  0  0  0  0  0  0  0  0  0  0  0
  -15.3172  -11.7360  -26.4381 H   0  0  0  0  0  0  0  0  0  0  0  0
  -14.5840  -23.4254  -26.1037 O   0  0  0  0  0  0  0  0  0  0  0  0
  -14.1700  -24.0394  -27.3137 C   0  0  0  0  0  0  0  0  0  0  0  0
  -14.0542  -25.1109  -27.1520 H   0  0  0  0  0  0  0  0  0  0  0  0
  -13.2077  -23.6519  -27.6520 H   0  0  0  0  0  0  0  0  0  0  0  0
  -14.9164  -23.9086  -28.0974 H   0  0  0  0  0  0  0  0  0  0  0  0
  1  2  2  0
  1  3  1  0
  1 16  1  0
  2  4  1  0
  2 18  1  0
  3  5  2  0
  3 19  1  0
  4  7  2  0
  4 20  1  0
  5  7  1  0
  5 21  1  0
  6  8  1  0
  6 16  2  0
  7 27  1  0
  8  9  2  0
  8 13  1  0
  9 12  1  0
  9 14  1  0
 10 11  1  0
 10 12  2  0
 10 26  1  0
 11 13  2  0
 11 22  1  0
 12 23  1  0
 13 25  1  0
 14 15  1  0
 14 17  2  0
 15 16  1  0
 15 24  1  0
 27 28  1  0
 28 29  1  0
 28 30  1  0
 28 31  1  0
M  END
>  <s_m_entry_id>  (1) 
514

>  <Name>  (1) 
1b

>  <IC50[nM]>  (1) 
52

>  <s_m_Source_Path>  (1) 
/projects/mai/users/kmzp800_harry/pmx_colab/docking_jobs/tnks2

>  <s_m_Source_File>  (1) 
tnks2_lig.sdf

>  <i_m_Source_File_Index>  (1) 
7

>  <s_m_job_name>  (1) 
glide-dock_SP_tnks_mcs_fallabck

>  <r_i_docking_score>  (1) 
-9.8001322405044

>  <r_i_glide_gscore>  (1) 
-9.8001322405044

>  <r_i_glide_emodel>  (1) 
-58.8566522022364

>  <index_string>  (1) 
17:0:0

$$$$
