13:0:0
     RDKit          3D

 31 32  0  0  1  0  0  0  0  0999 V2000
   39.1970   17.5160   12.6748 O   0  0  0  0  0  0  0  0  0  0  0  0
   40.3645   17.0658   12.6849 C   0  0  0  0  0  0  0  0  0  0  0  0
   41.2248   17.2997   11.8067 O   0  0  0  0  0  0  0  0  0  0  0  0
   40.7586   16.1481   13.8463 C   0  0  0  0  0  0  0  0  0  0  0  0
   42.1160   15.7297   13.7360 O   0  0  0  0  0  0  0  0  0  0  0  0
   42.5225   14.9278   14.7460 C   0  0  0  0  0  0  0  0  0  0  0  0
   42.1694   13.5625   14.8796 C   0  0  0  0  0  0  0  0  0  0  0  0
   41.1759   12.6870   13.5419 Br  0  0  0  0  0  0  0  0  0  0  0  0
   42.6142   12.9363   16.0081 C   0  0  0  0  0  0  0  0  0  0  0  0
   42.3410   11.5888   16.4790 C   0  0  0  0  0  0  0  0  0  0  0  0
   43.3726   10.7562   16.9496 C   0  0  0  0  0  0  0  0  0  0  0  0
   43.0884    9.4463   17.3712 C   0  0  0  0  0  0  0  0  0  0  0  0
   41.7707    8.9535   17.3144 C   0  0  0  0  0  0  0  0  0  0  0  0
   40.7238    9.7798   16.8507 C   0  0  0  0  0  0  0  0  0  0  0  0
   39.4039    9.4000   16.7735 O   0  0  0  0  0  0  0  0  0  0  0  0
   39.0317    8.0635   17.0756 C   0  0  0  0  0  0  0  0  0  0  0  0
   41.0234   11.0929   16.4492 C   0  0  0  0  0  0  0  0  0  0  0  0
   43.6328   14.0149   16.9156 S   0  0  0  0  0  0  0  0  0  0  0  0
   43.3585   15.3145   15.7636 C   0  0  0  0  0  0  0  0  0  0  0  0
   44.0183   16.5908   16.0432 C   0  0  0  0  0  0  0  0  0  0  0  0
   43.8534   17.5497   15.2572 O   0  0  0  0  0  0  0  0  0  0  0  0
   44.7420   16.6879   17.0551 O   0  0  0  0  0  0  0  0  0  0  0  0
   40.6157   16.6825   14.7844 H   0  0  0  0  0  0  0  0  0  0  0  0
   40.0954   15.2870   13.8673 H   0  0  0  0  0  0  0  0  0  0  0  0
   44.3850   11.1231   16.9850 H   0  0  0  0  0  0  0  0  0  0  0  0
   43.8845    8.8187   17.7389 H   0  0  0  0  0  0  0  0  0  0  0  0
   41.5743    7.9448   17.6363 H   0  0  0  0  0  0  0  0  0  0  0  0
   40.2293   11.7367   16.1056 H   0  0  0  0  0  0  0  0  0  0  0  0
   37.9537    7.9707   16.9295 H   0  0  0  0  0  0  0  0  0  0  0  0
   39.5156    7.3467   16.4122 H   0  0  0  0  0  0  0  0  0  0  0  0
   39.2451    7.8049   18.1126 H   0  0  0  0  0  0  0  0  0  0  0  0
  1  2  2  0
  2  3  1  0
  2  4  1  0
  4  5  1  0
  4 23  1  0
  4 24  1  0
  5  6  1  0
  6  7  1  0
  6 19  2  0
  7  8  1  0
  7  9  2  0
  9 10  1  0
  9 18  1  0
 10 11  2  0
 10 17  1  0
 11 12  1  0
 11 25  1  0
 12 13  2  0
 12 26  1  0
 13 14  1  0
 13 27  1  0
 14 15  1  0
 14 17  2  0
 15 16  1  0
 16 29  1  0
 16 30  1  0
 16 31  1  0
 17 28  1  0
 18 19  1  0
 19 20  1  0
 20 21  2  0
 20 22  1  0
M  CHG  2   3  -1  22  -1
M  END
>  <s_m_entry_id>  (1) 
530

>  <s_m_Source_Path>  (1) 
/projects/mai/users/kmzp800_harry/pmx_colab/docking_jobs/ptp1b/glide-dock_SP_ptp1b_mcs_2

>  <s_m_Source_File>  (1) 
glide-dock_SP_ptp1b_mcs_2_pv.maegz

>  <i_m_Source_File_Index>  (1) 
15

>  <r_i_docking_score>  (1) 
-6.7057832493132

>  <r_i_glide_gscore>  (1) 
-6.7057832493132

>  <r_i_glide_emodel>  (1) 
-80.7100366351684

>  <index_string>  (1) 
13:0:0

$$$$
