2:0:0
     RDKit          3D

 47 51  0  0  1  0  0  0  0  0999 V2000
    5.6030   -0.5850   16.3630 C   0  0  0  0  0  0  0  0  0  0  0  0
    4.3270   -1.0310   16.2400 N   0  0  0  0  0  0  0  0  0  0  0  0
    3.8340   -0.3030   15.2230 C   0  0  0  0  0  0  0  0  0  0  0  0
    2.5480   -0.3740   14.6930 C   0  0  0  0  0  0  0  0  0  0  0  0
    1.5880   -1.2960   15.2300 N   0  0  0  0  0  0  0  0  0  0  0  0
    2.2450    0.4600   13.6540 N   0  0  0  0  0  0  0  0  0  0  0  0
    3.1560    1.3430   13.1350 C   0  0  0  0  0  0  0  0  0  0  0  0
    4.4480    1.3940   13.6920 C   0  0  0  0  0  0  0  0  0  0  0  0
    4.7220    0.5580   14.7200 N   0  0  0  0  0  0  0  0  0  0  0  0
    5.8570    0.4070   15.4170 C   0  0  0  0  0  0  0  0  0  0  0  0
    2.7740    2.2220   12.0110 C   0  0  0  0  0  0  0  0  0  0  0  0
    3.7490    2.6090   11.0550 C   0  0  0  0  0  0  0  0  0  0  0  0
    3.4160    3.4450    9.9730 C   0  0  0  0  0  0  0  0  0  0  0  0
    2.0960    3.8720    9.8830 C   0  0  0  0  0  0  0  0  0  0  0  0
    1.1520    3.5070   10.7930 C   0  0  0  0  0  0  0  0  0  0  0  0
   -0.0200    4.1050   10.3940 C   0  0  0  0  0  0  0  0  0  0  0  0
    0.2650    4.8030    9.2640 N   0  0  0  0  0  0  0  0  0  0  0  0
    1.5500    4.6650    8.9500 N   0  0  0  0  0  0  0  0  0  0  0  0
    1.4440    2.6830   11.8740 C   0  0  0  0  0  0  0  0  0  0  0  0
    0.2350   -1.4860   14.7950 C   0  0  0  0  0  0  0  0  0  0  0  0
   -0.4820   -2.6550   15.0800 C   0  0  0  0  0  0  0  0  0  0  0  0
   -1.7980   -2.8030   14.6390 C   0  0  0  0  0  0  0  0  0  0  0  0
   -2.4190   -1.7810   13.9040 C   0  0  0  0  0  0  0  0  0  0  0  0
   -1.7080   -0.6070   13.6140 C   0  0  0  0  0  0  0  0  0  0  0  0
   -0.3840   -0.4690   14.0630 C   0  0  0  0  0  0  0  0  0  0  0  0
   -3.7370   -1.9110   13.4530 O   0  0  0  0  0  0  0  0  0  0  0  0
   -4.2250   -3.0930   12.8330 C   0  0  0  0  0  0  0  0  0  0  0  0
   -2.3330    0.4080   12.8810 O   0  0  0  0  0  0  0  0  0  0  0  0
   -1.7160    1.0490   11.7730 C   0  0  0  0  0  0  0  0  0  0  0  0
    6.3306   -0.9527   17.1015 H   0  0  0  0  0  0  0  0  0  0  0  0
    1.9055   -1.8852   16.0129 H   0  0  0  0  0  0  0  0  0  0  0  0
    5.2079    2.0889   13.3051 H   0  0  0  0  0  0  0  0  0  0  0  0
    6.7993    0.9555   15.2717 H   0  0  0  0  0  0  0  0  0  0  0  0
    4.7830    2.2492   11.1616 H   0  0  0  0  0  0  0  0  0  0  0  0
    4.1684    3.7478    9.2299 H   0  0  0  0  0  0  0  0  0  0  0  0
   -0.9978    4.0324   10.8926 H   0  0  0  0  0  0  0  0  0  0  0  0
    2.0333    5.0867    8.1441 H   0  0  0  0  0  0  0  0  0  0  0  0
    0.6666    2.3991   12.5986 H   0  0  0  0  0  0  0  0  0  0  0  0
   -0.0047   -3.4620   15.6553 H   0  0  0  0  0  0  0  0  0  0  0  0
   -2.3514   -3.7255   14.8687 H   0  0  0  0  0  0  0  0  0  0  0  0
    0.1730    0.4519   13.8354 H   0  0  0  0  0  0  0  0  0  0  0  0
   -4.5236   -3.8162   13.6062 H   0  0  0  0  0  0  0  0  0  0  0  0
   -5.0948   -2.8461   12.2064 H   0  0  0  0  0  0  0  0  0  0  0  0
   -3.4344   -3.5316   12.2064 H   0  0  0  0  0  0  0  0  0  0  0  0
   -0.9960    1.7970   12.1364 H   0  0  0  0  0  0  0  0  0  0  0  0
   -1.1901    0.3002   11.1624 H   0  0  0  0  0  0  0  0  0  0  0  0
   -2.4843    1.5460   11.1624 H   0  0  0  0  0  0  0  0  0  0  0  0
  1  2  1  0
  1 10  2  0
  2  3  2  0
  3  4  1  0
  3  9  1  0
  4  5  1  0
  4  6  2  0
  5 20  1  0
  6  7  1  0
  7  8  2  0
  7 11  1  0
  8  9  1  0
  9 10  1  0
 11 12  2  0
 11 19  1  0
 12 13  1  0
 13 14  2  0
 14 15  1  0
 14 18  1  0
 15 19  2  0
 15 16  1  0
 16 17  2  0
 17 18  1  0
 20 21  2  0
 20 25  1  0
 21 22  1  0
 22 23  2  0
 23 24  1  0
 23 26  1  0
 24 25  2  0
 24 28  1  0
 26 27  1  0
 28 29  1  0
  1 30  1  0
  5 31  1  0
  8 32  1  0
 10 33  1  0
 12 34  1  0
 13 35  1  0
 16 36  1  0
 18 37  1  0
 19 38  1  0
 21 39  1  0
 22 40  1  0
 25 41  1  0
 27 42  1  0
 27 43  1  0
 27 44  1  0
 29 45  1  0
 29 46  1  0
 29 47  1  0
M  END
>  <s_m_entry_id>  (1) 
3

>  <MODEL>  (1) 
1

>  <REMARK>  (1) 
 VINA RESULT:    -9.455      0.000      0.000
 INTER + INTRA:         -11.991
 INTER:                 -11.666
 INTRA:                  -0.324
 UNBOUND:                -0.324
  Name = /scratch/kmzp800/tmptjf7y_mo/tmpehzlahfj.pdb
  6 active torsions:
  status: ('A' for Active; 'I' for Inactive)
    1  A    between atoms: N2_5  and  C4_6
    2  A    between atoms: C7_9  and  O1_10
    3  A    between atoms: O1_10  and  C8_11
    4  A    between atoms: C9_12  and  O2_13
    5  A    between atoms: O2_13  and  C10_14
    6  A    between atoms: C12_17  and  C13_18
                            x       y       z     vdW  Elec       q    Type
                         _______ _______ _______ _____ _____    ______ ____

>  <TORSDO>  (1) 
F 4

>  <grid_id>  (1) 
syk-prepared

>  <grid_path>  (1) 
syk_vina.pdbqt

>  <grid_filename>  (1) 
syk_vina.pdbqt

>  <docking_score>  (1) 
-9.455

>  <compound_name>  (1) 
CHEMBL3265021

>  <index_string>  (1) 
2:0:0

>  <s_m_Source_Path>  (1) 
/projects/mai/users/kmzp800_harry/pmx_colab/docking_jobs/syk/vina_prep/output

>  <s_m_Source_File>  (1) 
ptp1b_docked_conformers.sdf

>  <i_m_Source_File_Index>  (1) 
3

$$$$
