40:0:0
     RDKit          3D

 58 63  0  0  1  0  0  0  0  0999 V2000
   -6.7841   -5.4232   13.8577 C   0  0  0  0  0  0  0  0  0  0  0  0
   -6.2092   -4.0574   14.2070 C   0  0  0  0  0  0  0  0  0  0  0  0
   -7.3056   -3.1859   14.3790 O   0  0  0  0  0  0  0  0  0  0  0  0
   -5.3890   -4.1561   15.5048 C   0  0  0  0  0  0  0  0  0  0  0  0
   -4.6724   -2.8349   15.8220 C   0  0  0  0  0  0  0  0  0  0  0  0
   -3.8749   -2.3836   14.6788 N   0  0  0  0  0  0  0  0  0  0  0  0
   -4.6000   -2.2537   13.4005 C   0  0  0  0  0  0  0  0  0  0  0  0
   -5.3205   -3.5735   13.0526 C   0  0  0  0  0  0  0  0  0  0  0  0
   -2.5254   -2.1032   14.8022 C   0  0  0  0  0  0  0  0  0  0  0  0
   -1.7448   -2.8676   15.6772 C   0  0  0  0  0  0  0  0  0  0  0  0
   -0.3910   -2.6125   15.8125 C   0  0  0  0  0  0  0  0  0  0  0  0
    0.2214   -1.5798   15.0861 C   0  0  0  0  0  0  0  0  0  0  0  0
    1.5937   -1.3533   15.3012 N   0  0  0  0  0  0  0  0  0  0  0  0
    2.5468   -0.4711   14.7540 C   0  0  0  0  0  0  0  0  0  0  0  0
    2.2186    0.3565   13.7203 N   0  0  0  0  0  0  0  0  0  0  0  0
    3.1228    1.2395   13.2204 C   0  0  0  0  0  0  0  0  0  0  0  0
    4.4238    1.3051   13.7206 C   0  0  0  0  0  0  0  0  0  0  0  0
    4.7479    0.4929   14.7645 N   0  0  0  0  0  0  0  0  0  0  0  0
    5.8940    0.3866   15.5076 C   0  0  0  0  0  0  0  0  0  0  0  0
    5.5726   -0.5129   16.5127 C   0  0  0  0  0  0  0  0  0  0  0  0
    4.3860   -1.0544   16.3889 N   0  0  0  0  0  0  0  0  0  0  0  0
    3.8362   -0.4210   15.3297 C   0  0  0  0  0  0  0  0  0  0  0  0
    2.6608    2.1513   12.1291 C   0  0  0  0  0  0  0  0  0  0  0  0
    1.3104    2.5542   12.0413 C   0  0  0  0  0  0  0  0  0  0  0  0
    0.8655    3.3714   10.9929 C   0  0  0  0  0  0  0  0  0  0  0  0
    1.7918    3.8075   10.0291 C   0  0  0  0  0  0  0  0  0  0  0  0
    1.7778    4.6042    8.8383 C   0  0  0  0  0  0  0  0  0  0  0  0
    2.9654    4.6970    8.3035 N   0  0  0  0  0  0  0  0  0  0  0  0
    3.7150    4.0809    9.0420 N   0  0  0  0  0  0  0  0  0  0  0  0
    3.1317    3.4449   10.1297 C   0  0  0  0  0  0  0  0  0  0  0  0
    3.5525    2.6290   11.1657 C   0  0  0  0  0  0  0  0  0  0  0  0
   -0.5645   -0.8236   14.2100 C   0  0  0  0  0  0  0  0  0  0  0  0
   -1.9379   -1.0727   14.0595 C   0  0  0  0  0  0  0  0  0  0  0  0
   -6.0005   -6.1654   13.7151 H   0  0  0  0  0  0  0  0  0  0  0  0
   -7.3797   -5.3858   12.9448 H   0  0  0  0  0  0  0  0  0  0  0  0
   -7.4408   -5.7870   14.6523 H   0  0  0  0  0  0  0  0  0  0  0  0
   -7.0874   -2.5703   15.0600 H   0  0  0  0  0  0  0  0  0  0  0  0
   -6.0475   -4.4371   16.3317 H   0  0  0  0  0  0  0  0  0  0  0  0
   -4.6540   -4.9604   15.4130 H   0  0  0  0  0  0  0  0  0  0  0  0
   -5.4045   -2.0554   16.0516 H   0  0  0  0  0  0  0  0  0  0  0  0
   -4.0743   -2.9495   16.7166 H   0  0  0  0  0  0  0  0  0  0  0  0
   -5.3292   -1.4395   13.4224 H   0  0  0  0  0  0  0  0  0  0  0  0
   -3.8897   -1.9947   12.6275 H   0  0  0  0  0  0  0  0  0  0  0  0
   -4.5780   -4.3344   12.8135 H   0  0  0  0  0  0  0  0  0  0  0  0
   -5.9233   -3.4347   12.1486 H   0  0  0  0  0  0  0  0  0  0  0  0
   -2.1970   -3.6683   16.2429 H   0  0  0  0  0  0  0  0  0  0  0  0
    0.1954   -3.2336   16.4807 H   0  0  0  0  0  0  0  0  0  0  0  0
    2.0504   -1.9869   15.9329 H   0  0  0  0  0  0  0  0  0  0  0  0
    5.1991    1.9580   13.3346 H   0  0  0  0  0  0  0  0  0  0  0  0
    6.7737    0.9350   15.2296 H   0  0  0  0  0  0  0  0  0  0  0  0
    6.1687   -0.8020   17.3769 H   0  0  0  0  0  0  0  0  0  0  0  0
    0.6036    2.2368   12.7934 H   0  0  0  0  0  0  0  0  0  0  0  0
   -0.1725    3.6455   10.9288 H   0  0  0  0  0  0  0  0  0  0  0  0
    0.9357    5.1013    8.3670 H   0  0  0  0  0  0  0  0  0  0  0  0
    4.7041    4.0522    8.8514 H   0  0  0  0  0  0  0  0  0  0  0  0
    4.6005    2.3533   11.2019 H   0  0  0  0  0  0  0  0  0  0  0  0
   -0.1279   -0.0168   13.6459 H   0  0  0  0  0  0  0  0  0  0  0  0
   -2.5211   -0.4705   13.3796 H   0  0  0  0  0  0  0  0  0  0  0  0
  1  2  1  0
  1 34  1  0
  1 35  1  0
  1 36  1  0
  2  3  1  0
  2  4  1  0
  2  8  1  0
  3 37  1  0
  4  5  1  0
  4 38  1  0
  4 39  1  0
  5  6  1  0
  5 40  1  0
  5 41  1  0
  6  7  1  0
  6  9  1  0
  7  8  1  0
  7 42  1  0
  7 43  1  0
  8 44  1  0
  8 45  1  0
  9 10  2  0
  9 33  1  0
 10 11  1  0
 10 46  1  0
 11 12  2  0
 11 47  1  0
 12 13  1  0
 12 32  1  0
 13 14  1  0
 13 48  1  0
 14 15  2  0
 14 22  1  0
 15 16  1  0
 16 17  2  0
 16 23  1  0
 17 18  1  0
 17 49  1  0
 18 19  1  0
 18 22  1  0
 19 20  2  0
 19 50  1  0
 20 21  1  0
 20 51  1  0
 21 22  2  0
 23 24  2  0
 23 31  1  0
 24 25  1  0
 24 52  1  0
 25 26  2  0
 25 53  1  0
 26 27  1  0
 26 30  1  0
 27 28  2  0
 27 54  1  0
 28 29  1  0
 29 30  1  0
 29 55  1  0
 30 31  2  0
 31 56  1  0
 32 33  2  0
 32 57  1  0
 33 58  1  0
M  END
>  <s_m_entry_id>  (1) 
2027

>  <IC50[nM]>  (1) 
1.4

>  <s_m_Source_Path>  (1) 
/projects/mai/users/kmzp800_harry/pmx_colab/docking_jobs/syk

>  <s_m_Source_File>  (1) 
tnks2_lig.sdf

>  <i_m_Source_File_Index>  (1) 
8

>  <s_m_job_name>  (1) 
glide-dock_SP_syk_single_compound_mcs_8

>  <r_i_docking_score>  (1) 
-9.63985919952393

>  <r_i_glide_gscore>  (1) 
-9.63985919952393

>  <r_i_glide_emodel>  (1) 
-30.2111396789551

>  <index_string>  (1) 
40:0:0

$$$$
