13:0:0
     RDKit          3D

 45 47  0  0  1  0  0  0  0  0999 V2000
   34.5530   35.0626   21.0534 C   0  0  0  0  0  0  0  0  0  0  0  0
   34.2261   38.9790   23.7326 C   0  0  0  0  0  0  0  0  0  0  0  0
   34.8750   37.8815   21.3748 C   0  0  0  0  0  0  0  0  0  0  0  0
   35.1533   37.2417   20.0971 C   0  0  0  0  0  0  0  0  0  0  0  0
   34.5199   37.0717   22.4732 C   0  0  0  0  0  0  0  0  0  0  0  0
   34.8978   39.2740   21.5763 C   0  0  0  0  0  0  0  0  0  0  0  0
   35.0179   35.9065   19.9491 C   0  0  0  0  0  0  0  0  0  0  0  0
   34.0994   34.8133   23.4384 C   0  0  0  0  0  0  0  0  0  0  0  0
   34.5538   39.8269   22.7593 N   0  0  0  0  0  0  0  0  0  0  0  0
   34.3000   33.8712   20.8765 O   0  0  0  0  0  0  0  0  0  0  0  0
   34.4306   35.6540   22.2759 N   0  0  0  0  0  0  0  0  0  0  0  0
   34.2262   37.6501   23.6554 N   0  0  0  0  0  0  0  0  0  0  0  0
   33.7918   39.5493   24.9081 N   0  0  0  0  0  0  0  0  0  0  0  0
   35.4647   37.8739   19.2798 H   0  0  0  0  0  0  0  0  0  0  0  0
   35.1490   39.9482   20.7726 H   0  0  0  0  0  0  0  0  0  0  0  0
   34.4864   33.7943   23.3583 H   0  0  0  0  0  0  0  0  0  0  0  0
   34.5175   35.2182   24.3614 H   0  0  0  0  0  0  0  0  0  0  0  0
   33.0173   34.7579   23.5577 H   0  0  0  0  0  0  0  0  0  0  0  0
   33.8098   40.5598   24.9718 H   0  0  0  0  0  0  0  0  0  0  0  0
   33.0548   38.8509   25.9575 C   0  0  0  0  0  0  0  0  0  0  0  0
   33.1044   39.4990   26.8344 H   0  0  0  0  0  0  0  0  0  0  0  0
   33.5706   37.9320   26.2385 H   0  0  0  0  0  0  0  0  0  0  0  0
   31.5677   38.5599   25.6233 C   0  0  0  0  0  0  0  0  0  0  0  0
   31.3362   37.2501   24.8491 C   0  0  0  0  0  0  0  0  0  0  0  0
   30.9443   38.3649   26.8750 O   0  0  0  0  0  0  0  0  0  0  0  0
   30.8730   39.7352   24.9125 C   0  0  0  0  0  0  0  0  0  0  0  0
   31.6425   37.3415   23.8103 H   0  0  0  0  0  0  0  0  0  0  0  0
   30.2819   36.9730   24.8362 H   0  0  0  0  0  0  0  0  0  0  0  0
   31.8830   36.4175   25.2941 H   0  0  0  0  0  0  0  0  0  0  0  0
   31.3025   39.9140   23.9269 H   0  0  0  0  0  0  0  0  0  0  0  0
   29.8141   39.5350   24.7559 H   0  0  0  0  0  0  0  0  0  0  0  0
   30.9539   40.6628   25.4803 H   0  0  0  0  0  0  0  0  0  0  0  0
   30.0431   38.1086   26.7363 H   0  0  0  0  0  0  0  0  0  0  0  0
   35.2389   35.2648   18.7562 O   0  0  0  0  0  0  0  0  0  0  0  0
   37.9131   36.6618   15.8709 C   0  0  0  0  0  0  0  0  0  0  0  0
   38.4048   36.3505   17.1600 C   0  0  0  0  0  0  0  0  0  0  0  0
   37.5016   36.0026   18.1804 C   0  0  0  0  0  0  0  0  0  0  0  0
   36.1530   35.7380   17.8497 C   0  0  0  0  0  0  0  0  0  0  0  0
   35.7451   35.8669   16.5137 C   0  0  0  0  0  0  0  0  0  0  0  0
   36.5718   36.4349   15.5404 C   0  0  0  0  0  0  0  0  0  0  0  0
   38.7046   37.2231   14.9439 F   0  0  0  0  0  0  0  0  0  0  0  0
   39.4380   36.5436   17.4050 H   0  0  0  0  0  0  0  0  0  0  0  0
   37.9289   35.9394   19.4631 F   0  0  0  0  0  0  0  0  0  0  0  0
   34.7222   35.6219   16.2579 H   0  0  0  0  0  0  0  0  0  0  0  0
   36.1634   36.7495   14.5904 H   0  0  0  0  0  0  0  0  0  0  0  0
  1  7  1  0
  1 10  2  0
  1 11  1  0
  2  9  1  0
  2 12  2  0
  2 13  1  0
  3  4  1  0
  3  5  2  0
  3  6  1  0
  4  7  2  0
  4 14  1  0
  5 11  1  0
  5 12  1  0
  6  9  2  0
  6 15  1  0
  7 34  1  0
  8 11  1  0
  8 16  1  0
  8 17  1  0
  8 18  1  0
 13 19  1  0
 13 20  1  0
 20 21  1  0
 20 22  1  0
 20 23  1  0
 23 24  1  0
 23 25  1  0
 23 26  1  0
 24 27  1  0
 24 28  1  0
 24 29  1  0
 25 33  1  0
 26 30  1  0
 26 31  1  0
 26 32  1  0
 34 38  1  0
 35 36  2  0
 35 40  1  0
 35 41  1  0
 36 37  1  0
 36 42  1  0
 37 38  2  0
 37 43  1  0
 38 39  1  0
 39 40  2  0
 39 44  1  0
 40 45  1  0
M  END
>  <s_m_entry_id>  (1) 
831

>  <s_m_Source_Path>  (1) 
/projects/mai/users/kmzp800_harry/pmx_colab/docking_jobs/p38/glide-dock_SP_p38_mcs_docking_2

>  <s_m_Source_File>  (1) 
glide-dock_SP_p38_mcs_docking_2_pv.maegz

>  <i_m_Source_File_Index>  (1) 
15

>  <s_pdb_PDB_TITLE>  (1) 
MX MODEL

>  <r_i_docking_score>  (1) 
-7.26489586820766

>  <r_i_glide_gscore>  (1) 
-7.26489586820766

>  <r_i_glide_emodel>  (1) 
-38.9078995514225

>  <index_string>  (1) 
13:0:0

$$$$
