37:0:0
     RDKit          3D

 48 52  0  0  1  0  0  0  0  0999 V2000
   -4.5238   -3.2230   15.4819 C   0  0  0  0  0  0  0  0  0  0  0  0
   -3.8810   -2.2546   14.6649 O   0  0  0  0  0  0  0  0  0  0  0  0
   -2.5261   -2.0646   14.8179 C   0  0  0  0  0  0  0  0  0  0  0  0
   -1.7369   -2.8235   15.7078 C   0  0  0  0  0  0  0  0  0  0  0  0
   -0.3633   -2.5820   15.8174 C   0  0  0  0  0  0  0  0  0  0  0  0
    0.2508   -1.5612   15.0735 C   0  0  0  0  0  0  0  0  0  0  0  0
    1.6180   -1.3414   15.3038 N   0  0  0  0  0  0  0  0  0  0  0  0
    2.5294   -0.4273   14.7285 C   0  0  0  0  0  0  0  0  0  0  0  0
    2.1949    0.3773   13.7596 N   0  0  0  0  0  0  0  0  0  0  0  0
    3.1211    1.2566   13.2274 C   0  0  0  0  0  0  0  0  0  0  0  0
    4.4213    1.2908   13.6857 C   0  0  0  0  0  0  0  0  0  0  0  0
    4.7563    0.4952   14.7336 N   0  0  0  0  0  0  0  0  0  0  0  0
    5.9094    0.3834   15.4871 C   0  0  0  0  0  0  0  0  0  0  0  0
    5.6214   -0.5011   16.4926 C   0  0  0  0  0  0  0  0  0  0  0  0
    4.3666   -1.0554   16.3346 N   0  0  0  0  0  0  0  0  0  0  0  0
    3.8340   -0.4100   15.3043 C   0  0  0  0  0  0  0  0  0  0  0  0
    2.6526    2.1640   12.1493 C   0  0  0  0  0  0  0  0  0  0  0  0
    3.5632    2.6649   11.1791 C   0  0  0  0  0  0  0  0  0  0  0  0
    3.1592    3.4888   10.1186 C   0  0  0  0  0  0  0  0  0  0  0  0
    1.8091    3.8397   10.0339 C   0  0  0  0  0  0  0  0  0  0  0  0
    1.1022    4.6045    9.1255 N   0  0  0  0  0  0  0  0  0  0  0  0
   -0.2379    4.6484    9.4855 C   0  0  0  0  0  0  0  0  0  0  0  0
   -0.4160    3.9242   10.6493 C   0  0  0  0  0  0  0  0  0  0  0  0
    0.8606    3.3883   11.0077 C   0  0  0  0  0  0  0  0  0  0  0  0
    1.2982    2.5504   12.0626 C   0  0  0  0  0  0  0  0  0  0  0  0
   -0.5331   -0.8084   14.1767 C   0  0  0  0  0  0  0  0  0  0  0  0
   -1.9180   -1.0513   14.0401 C   0  0  0  0  0  0  0  0  0  0  0  0
   -2.7329   -0.3142   13.2037 O   0  0  0  0  0  0  0  0  0  0  0  0
   -2.1765    0.7144   12.3899 C   0  0  0  0  0  0  0  0  0  0  0  0
   -5.5843   -3.2500   15.2338 H   0  0  0  0  0  0  0  0  0  0  0  0
   -4.4392   -2.9724   16.5405 H   0  0  0  0  0  0  0  0  0  0  0  0
   -4.1216   -4.2231   15.3142 H   0  0  0  0  0  0  0  0  0  0  0  0
   -2.1583   -3.5951   16.3267 H   0  0  0  0  0  0  0  0  0  0  0  0
    0.2166   -3.1834   16.4971 H   0  0  0  0  0  0  0  0  0  0  0  0
    2.0094   -1.8538   16.0889 H   0  0  0  0  0  0  0  0  0  0  0  0
    5.1963    1.9400   13.2981 H   0  0  0  0  0  0  0  0  0  0  0  0
    6.7767    0.9739   15.2326 H   0  0  0  0  0  0  0  0  0  0  0  0
    6.1829   -0.7812   17.3472 H   0  0  0  0  0  0  0  0  0  0  0  0
    4.6031    2.3967   11.2306 H   0  0  0  0  0  0  0  0  0  0  0  0
    3.8807    3.8327    9.3925 H   0  0  0  0  0  0  0  0  0  0  0  0
    1.4888    5.0769    8.3154 H   0  0  0  0  0  0  0  0  0  0  0  0
   -0.9426    5.2040    8.8677 H   0  0  0  0  0  0  0  0  0  0  0  0
   -1.3267    3.7590   11.2187 H   0  0  0  0  0  0  0  0  0  0  0  0
    0.5953    2.1922   12.8113 H   0  0  0  0  0  0  0  0  0  0  0  0
   -0.0702   -0.0351   13.5946 H   0  0  0  0  0  0  0  0  0  0  0  0
   -2.9839    1.1923   11.8310 H   0  0  0  0  0  0  0  0  0  0  0  0
   -1.6925    1.4876   12.9865 H   0  0  0  0  0  0  0  0  0  0  0  0
   -1.4685    0.3163   11.6627 H   0  0  0  0  0  0  0  0  0  0  0  0
  1  2  1  0
  1 30  1  0
  1 31  1  0
  1 32  1  0
  2  3  1  0
  3  4  2  0
  3 27  1  0
  4  5  1  0
  4 33  1  0
  5  6  2  0
  5 34  1  0
  6  7  1  0
  6 26  1  0
  7  8  1  0
  7 35  1  0
  8  9  2  0
  8 16  1  0
  9 10  1  0
 10 11  2  0
 10 17  1  0
 11 12  1  0
 11 36  1  0
 12 13  1  0
 12 16  1  0
 13 14  2  0
 13 37  1  0
 14 15  1  0
 14 38  1  0
 15 16  2  0
 17 18  2  0
 17 25  1  0
 18 19  1  0
 18 39  1  0
 19 20  2  0
 19 40  1  0
 20 21  1  0
 20 24  1  0
 21 22  1  0
 21 41  1  0
 22 23  2  0
 22 42  1  0
 23 24  1  0
 23 43  1  0
 24 25  2  0
 25 44  1  0
 26 27  2  0
 26 45  1  0
 27 28  1  0
 28 29  1  0
 29 46  1  0
 29 47  1  0
 29 48  1  0
M  END
>  <s_m_entry_id>  (1) 
1103

>  <IC50[nM]>  (1) 
8.6

>  <s_m_Source_Path>  (1) 
/projects/mai/users/kmzp800_harry/pmx_colab/docking_jobs/syk

>  <s_m_Source_File>  (1) 
tnks2_lig.sdf

>  <i_m_Source_File_Index>  (1) 
42

>  <s_m_job_name>  (1) 
glide-dock_SP_syk_mcs

>  <r_i_docking_score>  (1) 
-6.80073112877411

>  <r_i_glide_gscore>  (1) 
-6.80073112877411

>  <r_i_glide_emodel>  (1) 
-46.3536372670676

>  <index_string>  (1) 
37:0:0

$$$$
