1:0:0
     RDKit          3D

 48 51  0  0  1  0  0  0  0  0999 V2000
   -4.5962   -3.1454   15.4442 C   0  0  0  0  0  0  0  0  0  0  0  0
   -3.9558   -2.1454   14.6611 O   0  0  0  0  0  0  0  0  0  0  0  0
   -2.5886   -1.9960   14.7890 C   0  0  0  0  0  0  0  0  0  0  0  0
   -1.7783   -2.8277   15.6023 C   0  0  0  0  0  0  0  0  0  0  0  0
   -0.3959   -2.5898   15.7119 C   0  0  0  0  0  0  0  0  0  0  0  0
    0.2150   -1.5286   15.0181 C   0  0  0  0  0  0  0  0  0  0  0  0
    1.5901   -1.3390   15.2538 N   0  0  0  0  0  0  0  0  0  0  0  0
    2.5306   -0.4375   14.7274 C   0  0  0  0  0  0  0  0  0  0  0  0
    2.1989    0.3687   13.7525 N   0  0  0  0  0  0  0  0  0  0  0  0
    3.1235    1.2666   13.2546 C   0  0  0  0  0  0  0  0  0  0  0  0
    4.4302    1.2944   13.6869 C   0  0  0  0  0  0  0  0  0  0  0  0
    4.7675    0.4784   14.7183 N   0  0  0  0  0  0  0  0  0  0  0  0
    5.9137    0.3781   15.4824 C   0  0  0  0  0  0  0  0  0  0  0  0
    5.6065   -0.4948   16.4959 C   0  0  0  0  0  0  0  0  0  0  0  0
    4.3624   -1.0653   16.3194 N   0  0  0  0  0  0  0  0  0  0  0  0
    3.8321   -0.4160   15.2913 C   0  0  0  0  0  0  0  0  0  0  0  0
    2.6173    2.2391   12.2515 C   0  0  0  0  0  0  0  0  0  0  0  0
    1.2723    2.6808   12.2756 C   0  0  0  0  0  0  0  0  0  0  0  0
    0.7712    3.5609   11.2946 C   0  0  0  0  0  0  0  0  0  0  0  0
    1.6039    4.0121   10.2472 C   0  0  0  0  0  0  0  0  0  0  0  0
    2.9627    3.6351   10.2511 C   0  0  0  0  0  0  0  0  0  0  0  0
    3.4614    2.7683   11.2431 C   0  0  0  0  0  0  0  0  0  0  0  0
    1.0730    4.9012    9.1602 C   0  0  0  0  0  0  0  0  0  0  0  0
    1.7757    5.7527    8.6221 O   0  0  0  0  0  0  0  0  0  0  0  0
   -0.1743    4.6532    8.7572 N   0  0  0  0  0  0  0  0  0  0  0  0
   -0.5931   -0.7163   14.1878 C   0  0  0  0  0  0  0  0  0  0  0  0
   -1.9873   -0.9419   14.0660 C   0  0  0  0  0  0  0  0  0  0  0  0
   -2.8183   -0.1576   13.2890 O   0  0  0  0  0  0  0  0  0  0  0  0
   -2.2197    0.7703   12.3932 C   0  0  0  0  0  0  0  0  0  0  0  0
   -5.6696   -3.1180   15.2561 H   0  0  0  0  0  0  0  0  0  0  0  0
   -4.2442   -4.1436   15.1799 H   0  0  0  0  0  0  0  0  0  0  0  0
   -4.4449   -2.9759   16.5111 H   0  0  0  0  0  0  0  0  0  0  0  0
   -2.1941   -3.6465   16.1716 H   0  0  0  0  0  0  0  0  0  0  0  0
    0.1964   -3.2188   16.3629 H   0  0  0  0  0  0  0  0  0  0  0  0
    1.9839   -1.9389   15.9678 H   0  0  0  0  0  0  0  0  0  0  0  0
    5.1815    1.9963   13.3439 H   0  0  0  0  0  0  0  0  0  0  0  0
    6.7703    1.0010   15.2755 H   0  0  0  0  0  0  0  0  0  0  0  0
    6.1349   -0.7427   17.3905 H   0  0  0  0  0  0  0  0  0  0  0  0
    0.6061    2.3368   13.0526 H   0  0  0  0  0  0  0  0  0  0  0  0
   -0.2646    3.8644   11.3471 H   0  0  0  0  0  0  0  0  0  0  0  0
    3.6235    3.9914    9.4736 H   0  0  0  0  0  0  0  0  0  0  0  0
    4.4991    2.4728   11.1934 H   0  0  0  0  0  0  0  0  0  0  0  0
   -0.5738    5.2018    8.0104 H   0  0  0  0  0  0  0  0  0  0  0  0
   -0.7075    3.9187    9.1944 H   0  0  0  0  0  0  0  0  0  0  0  0
   -0.1590    0.1095   13.6574 H   0  0  0  0  0  0  0  0  0  0  0  0
   -2.9902    1.2087   11.7590 H   0  0  0  0  0  0  0  0  0  0  0  0
   -1.7371    1.5861   12.9319 H   0  0  0  0  0  0  0  0  0  0  0  0
   -1.4899    0.2880   11.7413 H   0  0  0  0  0  0  0  0  0  0  0  0
  1  2  1  0
  1 30  1  0
  1 31  1  0
  1 32  1  0
  2  3  1  0
  3  4  2  0
  3 27  1  0
  4  5  1  0
  4 33  1  0
  5  6  2  0
  5 34  1  0
  6  7  1  0
  6 26  1  0
  7  8  1  0
  7 35  1  0
  8  9  2  0
  8 16  1  0
  9 10  1  0
 10 11  2  0
 10 17  1  0
 11 12  1  0
 11 36  1  0
 12 13  1  0
 12 16  1  0
 13 14  2  0
 13 37  1  0
 14 15  1  0
 14 38  1  0
 15 16  2  0
 17 18  2  0
 17 22  1  0
 18 19  1  0
 18 39  1  0
 19 20  2  0
 19 40  1  0
 20 21  1  0
 20 23  1  0
 21 22  2  0
 21 41  1  0
 22 42  1  0
 23 24  2  0
 23 25  1  0
 25 43  1  0
 25 44  1  0
 26 27  2  0
 26 45  1  0
 27 28  1  0
 28 29  1  0
 29 46  1  0
 29 47  1  0
 29 48  1  0
M  END
>  <s_m_entry_id>  (1) 
989

>  <IC50[nM]>  (1) 
17.7

>  <s_m_Source_Path>  (1) 
/projects/mai/users/kmzp800_harry/pmx_colab/docking_jobs/syk

>  <s_m_Source_File>  (1) 
tnks2_lig.sdf

>  <i_m_Source_File_Index>  (1) 
2

>  <s_m_job_name>  (1) 
glide-dock_SP_tnks2_core_const

>  <r_i_docking_score>  (1) 
-7.33909649970697

>  <r_i_glide_gscore>  (1) 
-7.33909649970697

>  <r_i_glide_emodel>  (1) 
-50.5214387838944

>  <index_string>  (1) 
1:0:0

$$$$
