2:0:0
     RDKit          3D

 47 51  0  0  1  0  0  0  0  0999 V2000
   -4.5855   -3.0272   15.7955 C   0  0  0  0  0  0  0  0  0  0  0  0
   -3.9602   -2.1252   14.8929 O   0  0  0  0  0  0  0  0  0  0  0  0
   -2.5875   -1.9963   14.9547 C   0  0  0  0  0  0  0  0  0  0  0  0
   -1.7586   -2.8077   15.7675 C   0  0  0  0  0  0  0  0  0  0  0  0
   -0.3713   -2.5881   15.8173 C   0  0  0  0  0  0  0  0  0  0  0  0
    0.2257   -1.5585   15.0663 C   0  0  0  0  0  0  0  0  0  0  0  0
    1.6068   -1.3678   15.2551 N   0  0  0  0  0  0  0  0  0  0  0  0
    2.5245   -0.4426   14.7283 C   0  0  0  0  0  0  0  0  0  0  0  0
    2.1867    0.3520   13.7567 N   0  0  0  0  0  0  0  0  0  0  0  0
    3.0990    1.2564   13.2712 C   0  0  0  0  0  0  0  0  0  0  0  0
    4.4019    1.3292   13.7140 C   0  0  0  0  0  0  0  0  0  0  0  0
    4.7588    0.4923   14.7228 N   0  0  0  0  0  0  0  0  0  0  0  0
    5.9083    0.3857   15.4819 C   0  0  0  0  0  0  0  0  0  0  0  0
    5.6083   -0.4989   16.4876 C   0  0  0  0  0  0  0  0  0  0  0  0
    4.3621   -1.0614   16.3182 N   0  0  0  0  0  0  0  0  0  0  0  0
    3.8304   -0.4157   15.2873 C   0  0  0  0  0  0  0  0  0  0  0  0
    2.5459    2.2720   12.3621 C   0  0  0  0  0  0  0  0  0  0  0  0
    1.2348    2.7820   12.5409 C   0  0  0  0  0  0  0  0  0  0  0  0
    0.7388    3.8112   11.7182 C   0  0  0  0  0  0  0  0  0  0  0  0
    1.5747    4.3379   10.7223 C   0  0  0  0  0  0  0  0  0  0  0  0
    1.4506    5.3428    9.7792 N   0  0  0  0  0  0  0  0  0  0  0  0
    2.5614    5.5149    9.0172 N   0  0  0  0  0  0  0  0  0  0  0  0
    3.4149    4.6152    9.4419 C   0  0  0  0  0  0  0  0  0  0  0  0
    2.8864    3.8440   10.5105 C   0  0  0  0  0  0  0  0  0  0  0  0
    3.3519    2.8040   11.3355 C   0  0  0  0  0  0  0  0  0  0  0  0
   -0.5978   -0.7785   14.2206 C   0  0  0  0  0  0  0  0  0  0  0  0
   -1.9992   -0.9870   14.1609 C   0  0  0  0  0  0  0  0  0  0  0  0
   -2.8494   -0.2286   13.3793 O   0  0  0  0  0  0  0  0  0  0  0  0
   -2.2764    0.6824   12.4498 C   0  0  0  0  0  0  0  0  0  0  0  0
   -5.6668   -2.9665   15.6739 H   0  0  0  0  0  0  0  0  0  0  0  0
   -4.3562   -2.7780   16.8332 H   0  0  0  0  0  0  0  0  0  0  0  0
   -4.2901   -4.0584   15.5979 H   0  0  0  0  0  0  0  0  0  0  0  0
   -2.1618   -3.5955   16.3864 H   0  0  0  0  0  0  0  0  0  0  0  0
    0.2311   -3.2038   16.4715 H   0  0  0  0  0  0  0  0  0  0  0  0
    2.0206   -1.9547   15.9688 H   0  0  0  0  0  0  0  0  0  0  0  0
    5.1284    2.0659   13.3889 H   0  0  0  0  0  0  0  0  0  0  0  0
    6.7630    1.0138   15.2814 H   0  0  0  0  0  0  0  0  0  0  0  0
    6.1355   -0.7589   17.3794 H   0  0  0  0  0  0  0  0  0  0  0  0
    0.6095    2.4003   13.3346 H   0  0  0  0  0  0  0  0  0  0  0  0
   -0.2541    4.2066   11.8713 H   0  0  0  0  0  0  0  0  0  0  0  0
    0.6462    5.9388    9.6482 H   0  0  0  0  0  0  0  0  0  0  0  0
    4.3991    4.5298    9.0174 H   0  0  0  0  0  0  0  0  0  0  0  0
    4.3524    2.4286   11.1824 H   0  0  0  0  0  0  0  0  0  0  0  0
   -0.1692    0.0116   13.6341 H   0  0  0  0  0  0  0  0  0  0  0  0
   -3.0652    1.1127   11.8328 H   0  0  0  0  0  0  0  0  0  0  0  0
   -1.7719    1.5039   12.9601 H   0  0  0  0  0  0  0  0  0  0  0  0
   -1.5733    0.1853   11.7793 H   0  0  0  0  0  0  0  0  0  0  0  0
  1  2  1  0
  1 30  1  0
  1 31  1  0
  1 32  1  0
  2  3  1  0
  3  4  2  0
  3 27  1  0
  4  5  1  0
  4 33  1  0
  5  6  2  0
  5 34  1  0
  6  7  1  0
  6 26  1  0
  7  8  1  0
  7 35  1  0
  8  9  2  0
  8 16  1  0
  9 10  1  0
 10 11  2  0
 10 17  1  0
 11 12  1  0
 11 36  1  0
 12 13  1  0
 12 16  1  0
 13 14  2  0
 13 37  1  0
 14 15  1  0
 14 38  1  0
 15 16  2  0
 17 18  2  0
 17 25  1  0
 18 19  1  0
 18 39  1  0
 19 20  2  0
 19 40  1  0
 20 21  1  0
 20 24  1  0
 21 22  1  0
 21 41  1  0
 22 23  2  0
 23 24  1  0
 23 42  1  0
 24 25  2  0
 25 43  1  0
 26 27  2  0
 26 44  1  0
 27 28  1  0
 28 29  1  0
 29 45  1  0
 29 46  1  0
 29 47  1  0
M  END
>  <s_m_entry_id>  (1) 
990

>  <IC50[nM]>  (1) 
10.4

>  <s_m_Source_Path>  (1) 
/projects/mai/users/kmzp800_harry/pmx_colab/docking_jobs/syk

>  <s_m_Source_File>  (1) 
tnks2_lig.sdf

>  <i_m_Source_File_Index>  (1) 
3

>  <s_m_job_name>  (1) 
glide-dock_SP_tnks2_core_const

>  <r_i_docking_score>  (1) 
-7.15585954801015

>  <r_i_glide_gscore>  (1) 
-7.15585954801015

>  <r_i_glide_emodel>  (1) 
-49.4568550889585

>  <index_string>  (1) 
2:0:0

$$$$
