0:0:0
     RDKit          3D

 56 61  0  0  1  0  0  0  0  0999 V2000
    5.8200   -0.4720   16.3380 C   0  0  0  0  0  0  0  0  0  0  0  0
    4.5750   -1.0070   16.2580 N   0  0  0  0  0  0  0  0  0  0  0  0
    3.9940   -0.3080   15.2670 C   0  0  0  0  0  0  0  0  0  0  0  0
    2.6970   -0.4660   14.7860 C   0  0  0  0  0  0  0  0  0  0  0  0
    1.8320   -1.4670   15.3380 N   0  0  0  0  0  0  0  0  0  0  0  0
    2.2990    0.3450   13.7590 N   0  0  0  0  0  0  0  0  0  0  0  0
    3.1260    1.2920   13.2140 C   0  0  0  0  0  0  0  0  0  0  0  0
    4.4310    1.4340   13.7260 C   0  0  0  0  0  0  0  0  0  0  0  0
    4.8000    0.6140   14.7390 N   0  0  0  0  0  0  0  0  0  0  0  0
    5.9670    0.5410   15.3920 C   0  0  0  0  0  0  0  0  0  0  0  0
    2.6510    2.1410   12.1030 C   0  0  0  0  0  0  0  0  0  0  0  0
    3.5710    2.6130   11.1320 C   0  0  0  0  0  0  0  0  0  0  0  0
    3.1490    3.4240   10.0620 C   0  0  0  0  0  0  0  0  0  0  0  0
    1.7970    3.7400   10.0010 C   0  0  0  0  0  0  0  0  0  0  0  0
    1.0780    4.4950    9.1030 C   0  0  0  0  0  0  0  0  0  0  0  0
   -0.2120    4.4730    9.5240 N   0  0  0  0  0  0  0  0  0  0  0  0
   -0.3240    3.7450   10.6320 N   0  0  0  0  0  0  0  0  0  0  0  0
    0.9040    3.2950   10.9260 C   0  0  0  0  0  0  0  0  0  0  0  0
    1.2860    2.4920   11.9960 C   0  0  0  0  0  0  0  0  0  0  0  0
    0.4440   -1.6690   15.0440 C   0  0  0  0  0  0  0  0  0  0  0  0
   -0.1610   -2.8590   15.4490 C   0  0  0  0  0  0  0  0  0  0  0  0
   -1.5140   -3.0840   15.1990 C   0  0  0  0  0  0  0  0  0  0  0  0
   -2.2990   -2.1220   14.5430 C   0  0  0  0  0  0  0  0  0  0  0  0
   -1.6900   -0.9140   14.1240 C   0  0  0  0  0  0  0  0  0  0  0  0
   -0.3250   -0.7030   14.3850 C   0  0  0  0  0  0  0  0  0  0  0  0
   -3.6980   -2.3960   14.3210 N   0  0  0  0  0  0  0  0  0  0  0  0
   -4.6990   -2.2270   15.3750 C   0  0  0  0  0  0  0  0  0  0  0  0
   -5.7510   -3.3310   15.2610 C   0  0  0  0  0  0  0  0  0  0  0  0
   -6.2860   -3.3470   13.9610 O   0  0  0  0  0  0  0  0  0  0  0  0
   -5.2690   -3.8320   13.1190 C   0  0  0  0  0  0  0  0  0  0  0  0
   -4.1610   -2.7860   12.9870 C   0  0  0  0  0  0  0  0  0  0  0  0
   -2.4360    0.0530   13.4390 O   0  0  0  0  0  0  0  0  0  0  0  0
   -1.9050    0.8320   12.3760 C   0  0  0  0  0  0  0  0  0  0  0  0
    6.5990   -0.7913   17.0460 H   0  0  0  0  0  0  0  0  0  0  0  0
    2.2545   -2.1119   16.0210 H   0  0  0  0  0  0  0  0  0  0  0  0
    5.1249    2.1836   13.3179 H   0  0  0  0  0  0  0  0  0  0  0  0
    6.8616    1.1567   15.2170 H   0  0  0  0  0  0  0  0  0  0  0  0
    4.6333    2.3403   11.2168 H   0  0  0  0  0  0  0  0  0  0  0  0
    3.8588    3.7919    9.3064 H   0  0  0  0  0  0  0  0  0  0  0  0
    1.4718    5.0148    8.2171 H   0  0  0  0  0  0  0  0  0  0  0  0
   -1.1881    3.5623   11.1620 H   0  0  0  0  0  0  0  0  0  0  0  0
    0.5499    2.1417   12.7345 H   0  0  0  0  0  0  0  0  0  0  0  0
    0.4333   -3.6248   15.9690 H   0  0  0  0  0  0  0  0  0  0  0  0
   -1.9739   -4.0301   15.5207 H   0  0  0  0  0  0  0  0  0  0  0  0
    0.1471    0.2379   14.0657 H   0  0  0  0  0  0  0  0  0  0  0  0
   -4.2097   -2.2870   16.3583 H   0  0  0  0  0  0  0  0  0  0  0  0
   -5.1841   -1.2458   15.2659 H   0  0  0  0  0  0  0  0  0  0  0  0
   -5.2843   -4.3037   15.4758 H   0  0  0  0  0  0  0  0  0  0  0  0
   -6.5581   -3.1394   15.9834 H   0  0  0  0  0  0  0  0  0  0  0  0
   -4.8504   -4.7550   13.5466 H   0  0  0  0  0  0  0  0  0  0  0  0
   -5.6905   -4.0412   12.1247 H   0  0  0  0  0  0  0  0  0  0  0  0
   -4.5515   -1.9022   12.4612 H   0  0  0  0  0  0  0  0  0  0  0  0
   -3.3216   -3.2101   12.4164 H   0  0  0  0  0  0  0  0  0  0  0  0
   -1.3310    1.6742   12.7898 H   0  0  0  0  0  0  0  0  0  0  0  0
   -1.2443    0.2066   11.7576 H   0  0  0  0  0  0  0  0  0  0  0  0
   -2.7286    1.2183   11.7576 H   0  0  0  0  0  0  0  0  0  0  0  0
  1  2  1  0
  1 10  2  0
  2  3  2  0
  3  4  1  0
  3  9  1  0
  4  5  1  0
  4  6  2  0
  5 20  1  0
  6  7  1  0
  7  8  2  0
  7 11  1  0
  8  9  1  0
  9 10  1  0
 11 12  2  0
 11 19  1  0
 12 13  1  0
 13 14  2  0
 14 18  1  0
 14 15  1  0
 15 16  2  0
 16 17  1  0
 17 18  1  0
 18 19  2  0
 20 21  2  0
 20 25  1  0
 21 22  1  0
 22 23  2  0
 23 24  1  0
 23 26  1  0
 24 25  2  0
 24 32  1  0
 26 27  1  0
 26 31  1  0
 27 28  1  0
 28 29  1  0
 29 30  1  0
 30 31  1  0
 32 33  1  0
  1 34  1  0
  5 35  1  0
  8 36  1  0
 10 37  1  0
 12 38  1  0
 13 39  1  0
 15 40  1  0
 17 41  1  0
 19 42  1  0
 21 43  1  0
 22 44  1  0
 25 45  1  0
 27 46  1  0
 27 47  1  0
 28 48  1  0
 28 49  1  0
 30 50  1  0
 30 51  1  0
 31 52  1  0
 31 53  1  0
 33 54  1  0
 33 55  1  0
 33 56  1  0
M  END
>  <s_m_entry_id>  (1) 
177

>  <MODEL>  (1) 
1

>  <REMARK>  (1) 
 VINA RESULT:   -10.555      0.000      0.000
 INTER + INTRA:         -12.666
 INTER:                 -12.116
 INTRA:                  -0.550
 UNBOUND:                 0.356
  Name = /scratch/kmzp800/tmpunnj1tse/tmpg69yzawd.pdb
  5 active torsions:
  status: ('A' for Active; 'I' for Inactive)
    1  A    between atoms: N2_5  and  C4_6
    2  A    between atoms: C7_9  and  N3_10
    3  A    between atoms: C12_16  and  O2_17
    4  A    between atoms: O2_17  and  C13_18
    5  A    between atoms: C15_21  and  C16_22
                            x       y       z     vdW  Elec       q    Type
                         _______ _______ _______ _____ _____    ______ ____

>  <TORSDO>  (1) 
F 4

>  <grid_id>  (1) 
syk-prepared

>  <grid_path>  (1) 
syk_vina.pdbqt

>  <grid_filename>  (1) 
syk_vina.pdbqt

>  <docking_score>  (1) 
-10.555

>  <compound_name>  (1) 
CHEMBL3265037

>  <index_string>  (1) 
0:0:0

>  <s_m_Source_Path>  (1) 
/projects/mai/users/kmzp800_harry/pmx_colab/docking_jobs/syk/vina_prep/output

>  <s_m_Source_File>  (1) 
ptp1b_docked_conformers.sdf

>  <i_m_Source_File_Index>  (1) 
1

$$$$
