25:0:0
     RDKit          3D

 50 54  0  0  1  0  0  0  0  0999 V2000
   -4.5828   -3.0299   15.7763 C   0  0  0  0  0  0  0  0  0  0  0  0
   -3.9551   -2.1275   14.8758 O   0  0  0  0  0  0  0  0  0  0  0  0
   -2.5831   -1.9957   14.9443 C   0  0  0  0  0  0  0  0  0  0  0  0
   -1.7566   -2.8035   15.7630 C   0  0  0  0  0  0  0  0  0  0  0  0
   -0.3699   -2.5814   15.8174 C   0  0  0  0  0  0  0  0  0  0  0  0
    0.2283   -1.5522   15.0663 C   0  0  0  0  0  0  0  0  0  0  0  0
    1.6086   -1.3615   15.2550 N   0  0  0  0  0  0  0  0  0  0  0  0
    2.5298   -0.4402   14.7275 C   0  0  0  0  0  0  0  0  0  0  0  0
    2.2025    0.3682   13.7571 N   0  0  0  0  0  0  0  0  0  0  0  0
    3.1278    1.2601   13.2553 C   0  0  0  0  0  0  0  0  0  0  0  0
    4.4351    1.2837   13.6849 C   0  0  0  0  0  0  0  0  0  0  0  0
    4.7672    0.4724   14.7213 N   0  0  0  0  0  0  0  0  0  0  0  0
    5.9106    0.3765   15.4881 C   0  0  0  0  0  0  0  0  0  0  0  0
    5.6005   -0.4928   16.5012 C   0  0  0  0  0  0  0  0  0  0  0  0
    4.3614   -1.0694   16.3219 N   0  0  0  0  0  0  0  0  0  0  0  0
    3.8315   -0.4213   15.2922 C   0  0  0  0  0  0  0  0  0  0  0  0
    2.6262    2.2663   12.2885 C   0  0  0  0  0  0  0  0  0  0  0  0
    3.4584    2.7796   11.2618 C   0  0  0  0  0  0  0  0  0  0  0  0
    2.9882    3.7338   10.3365 C   0  0  0  0  0  0  0  0  0  0  0  0
    1.6709    4.2330   10.4259 C   0  0  0  0  0  0  0  0  0  0  0  0
    0.8506    5.1661    9.7162 C   0  0  0  0  0  0  0  0  0  0  0  0
   -0.3414    5.2685   10.2535 N   0  0  0  0  0  0  0  0  0  0  0  0
   -0.3434    4.4275   11.3218 N   0  0  0  0  0  0  0  0  0  0  0  0
   -1.5390    4.3509   12.1350 C   0  0  0  0  0  0  0  0  0  0  0  0
    0.8530    3.7412   11.4771 C   0  0  0  0  0  0  0  0  0  0  0  0
    1.3110    2.7746   12.3910 C   0  0  0  0  0  0  0  0  0  0  0  0
   -0.5920   -0.7741   14.2174 C   0  0  0  0  0  0  0  0  0  0  0  0
   -1.9927   -0.9865   14.1516 C   0  0  0  0  0  0  0  0  0  0  0  0
   -2.8393   -0.2317   13.3635 O   0  0  0  0  0  0  0  0  0  0  0  0
   -2.2595    0.6589   12.4197 C   0  0  0  0  0  0  0  0  0  0  0  0
   -5.6638   -2.9739   15.6479 H   0  0  0  0  0  0  0  0  0  0  0  0
   -4.2817   -4.0601   15.5825 H   0  0  0  0  0  0  0  0  0  0  0  0
   -4.3610   -2.7771   16.8145 H   0  0  0  0  0  0  0  0  0  0  0  0
   -2.1607   -3.5908   16.3817 H   0  0  0  0  0  0  0  0  0  0  0  0
    0.2313   -3.1958   16.4738 H   0  0  0  0  0  0  0  0  0  0  0  0
    2.0216   -1.9503   15.9677 H   0  0  0  0  0  0  0  0  0  0  0  0
    5.1835    1.9900   13.3431 H   0  0  0  0  0  0  0  0  0  0  0  0
    6.7683    0.9995   15.2843 H   0  0  0  0  0  0  0  0  0  0  0  0
    6.1235   -0.7387   17.4003 H   0  0  0  0  0  0  0  0  0  0  0  0
    4.4701    2.4159   11.1591 H   0  0  0  0  0  0  0  0  0  0  0  0
    3.6410    4.0896    9.5536 H   0  0  0  0  0  0  0  0  0  0  0  0
    1.0974    5.7595    8.8481 H   0  0  0  0  0  0  0  0  0  0  0  0
   -1.2965    3.9497   13.1191 H   0  0  0  0  0  0  0  0  0  0  0  0
   -1.9683    5.3453   12.2632 H   0  0  0  0  0  0  0  0  0  0  0  0
   -2.2705    3.7040   11.6510 H   0  0  0  0  0  0  0  0  0  0  0  0
    0.6572    2.4310   13.1781 H   0  0  0  0  0  0  0  0  0  0  0  0
   -0.1591    0.0147   13.6320 H   0  0  0  0  0  0  0  0  0  0  0  0
   -3.0458    1.0981   11.8062 H   0  0  0  0  0  0  0  0  0  0  0  0
   -1.7358    1.4753   12.9175 H   0  0  0  0  0  0  0  0  0  0  0  0
   -1.5702    0.1427   11.7493 H   0  0  0  0  0  0  0  0  0  0  0  0
  1  2  1  0
  1 31  1  0
  1 32  1  0
  1 33  1  0
  2  3  1  0
  3  4  2  0
  3 28  1  0
  4  5  1  0
  4 34  1  0
  5  6  2  0
  5 35  1  0
  6  7  1  0
  6 27  1  0
  7  8  1  0
  7 36  1  0
  8  9  2  0
  8 16  1  0
  9 10  1  0
 10 11  2  0
 10 17  1  0
 11 12  1  0
 11 37  1  0
 12 13  1  0
 12 16  1  0
 13 14  2  0
 13 38  1  0
 14 15  1  0
 14 39  1  0
 15 16  2  0
 17 18  2  0
 17 26  1  0
 18 19  1  0
 18 40  1  0
 19 20  2  0
 19 41  1  0
 20 21  1  0
 20 25  1  0
 21 22  2  0
 21 42  1  0
 22 23  1  0
 23 24  1  0
 23 25  1  0
 24 43  1  0
 24 44  1  0
 24 45  1  0
 25 26  2  0
 26 46  1  0
 27 28  2  0
 27 47  1  0
 28 29  1  0
 29 30  1  0
 30 48  1  0
 30 49  1  0
 30 50  1  0
M  END
>  <s_m_entry_id>  (1) 
1013

>  <IC50[nM]>  (1) 
12.3

>  <s_m_Source_Path>  (1) 
/projects/mai/users/kmzp800_harry/pmx_colab/docking_jobs/syk

>  <s_m_Source_File>  (1) 
tnks2_lig.sdf

>  <i_m_Source_File_Index>  (1) 
26

>  <s_m_job_name>  (1) 
glide-dock_SP_tnks2_core_const

>  <r_i_docking_score>  (1) 
-7.09391580863984

>  <r_i_glide_gscore>  (1) 
-7.09391580863984

>  <r_i_glide_emodel>  (1) 
-49.2855574168891

>  <index_string>  (1) 
25:0:0

$$$$
