20:0:0
     RDKit          3D

 43 46  0  0  1  0  0  0  0  0999 V2000
   32.8678   34.5179   14.3669 F   0  0  0  0  0  0  0  0  0  0  0  0
   33.5632   34.8290   15.4847 C   0  0  0  0  0  0  0  0  0  0  0  0
   34.9611   34.8256   15.4917 C   0  0  0  0  0  0  0  0  0  0  0  0
   35.6753   35.1493   16.6516 C   0  0  0  0  0  0  0  0  0  0  0  0
   37.0293   35.2076   16.5973 F   0  0  0  0  0  0  0  0  0  0  0  0
   34.9913   35.2599   17.8783 C   0  0  0  0  0  0  0  0  0  0  0  0
   33.5791   35.2708   17.8774 C   0  0  0  0  0  0  0  0  0  0  0  0
   32.8855   35.1500   16.6650 C   0  0  0  0  0  0  0  0  0  0  0  0
   35.7257   35.2472   19.0366 O   0  0  0  0  0  0  0  0  0  0  0  0
   35.1838   35.8272   20.1388 C   0  0  0  0  0  0  0  0  0  0  0  0
   35.2690   37.1605   20.2635 C   0  0  0  0  0  0  0  0  0  0  0  0
   34.5398   34.9939   21.1561 C   0  0  0  0  0  0  0  0  0  0  0  0
   34.3192   33.8024   20.9450 O   0  0  0  0  0  0  0  0  0  0  0  0
   34.1758   35.6193   22.3140 N   0  0  0  0  0  0  0  0  0  0  0  0
   33.5856   34.8299   23.4060 C   0  0  0  0  0  0  0  0  0  0  0  0
   34.2779   37.0384   22.5110 C   0  0  0  0  0  0  0  0  0  0  0  0
   34.8017   37.8282   21.4670 C   0  0  0  0  0  0  0  0  0  0  0  0
   33.8870   37.6378   23.6560 N   0  0  0  0  0  0  0  0  0  0  0  0
   34.0032   38.9601   23.7596 C   0  0  0  0  0  0  0  0  0  0  0  0
   34.4803   39.7881   22.8299 N   0  0  0  0  0  0  0  0  0  0  0  0
   34.8642   39.2197   21.6668 C   0  0  0  0  0  0  0  0  0  0  0  0
   33.5948   39.5498   24.9373 N   0  0  0  0  0  0  0  0  0  0  0  0
   32.9692   38.8398   26.0482 C   0  0  0  0  0  0  0  0  0  0  0  0
   31.5276   38.4404   25.7966 C   0  0  0  0  0  0  0  0  0  0  0  0
   31.0386   38.1887   27.2183 C   0  0  0  0  0  0  0  0  0  0  0  0
   31.7875   39.0709   28.0523 O   0  0  0  0  0  0  0  0  0  0  0  0
   32.8205   39.6981   27.3006 C   0  0  0  0  0  0  0  0  0  0  0  0
   33.5594   37.9570   26.3011 H   0  0  0  0  0  0  0  0  0  0  0  0
   35.5060   34.5385   14.6255 H   0  0  0  0  0  0  0  0  0  0  0  0
   33.0033   35.3630   18.7865 H   0  0  0  0  0  0  0  0  0  0  0  0
   31.8041   35.1593   16.6767 H   0  0  0  0  0  0  0  0  0  0  0  0
   35.7538   37.7548   19.4996 H   0  0  0  0  0  0  0  0  0  0  0  0
   32.5188   35.0421   23.4844 H   0  0  0  0  0  0  0  0  0  0  0  0
   33.7033   33.7526   23.2916 H   0  0  0  0  0  0  0  0  0  0  0  0
   34.0531   35.0876   24.3578 H   0  0  0  0  0  0  0  0  0  0  0  0
   35.2570   39.8772   20.9081 H   0  0  0  0  0  0  0  0  0  0  0  0
   33.7510   40.5460   25.0477 H   0  0  0  0  0  0  0  0  0  0  0  0
   30.9643   39.2626   25.3505 H   0  0  0  0  0  0  0  0  0  0  0  0
   31.4150   37.5681   25.1503 H   0  0  0  0  0  0  0  0  0  0  0  0
   29.9675   38.3492   27.3234 H   0  0  0  0  0  0  0  0  0  0  0  0
   31.2559   37.1664   27.5206 H   0  0  0  0  0  0  0  0  0  0  0  0
   33.7438   39.7769   27.8736 H   0  0  0  0  0  0  0  0  0  0  0  0
   32.4851   40.7065   27.0524 H   0  0  0  0  0  0  0  0  0  0  0  0
  1  2  1  0
  2  8  2  0
  2  3  1  0
  3  4  2  0
  3 29  1  0
  4  5  1  0
  4  6  1  0
  6  7  2  0
  6  9  1  0
  7  8  1  0
  7 30  1  0
  8 31  1  0
  9 10  1  0
 10 11  2  0
 10 12  1  0
 11 17  1  0
 11 32  1  0
 12 13  2  0
 12 14  1  0
 14 15  1  0
 14 16  1  0
 15 33  1  0
 15 34  1  0
 15 35  1  0
 16 17  2  0
 16 18  1  0
 17 21  1  0
 18 19  2  0
 19 20  1  0
 19 22  1  0
 20 21  2  0
 21 36  1  0
 22 23  1  0
 22 37  1  0
 23 28  1  0
 23 27  1  0
 23 24  1  0
 24 25  1  0
 24 38  1  0
 24 39  1  0
 25 26  1  0
 25 40  1  0
 25 41  1  0
 26 27  1  0
 27 42  1  0
 27 43  1  0
M  END
>  <s_m_entry_id>  (1) 
260

>  <i_f3d_flags>  (1) 
0

>  <r_lp_tautomer_probability>  (1) 
1

>  <r_epik_Ionization_Penalty>  (1) 
  0.0000

>  <r_epik_State_Penalty>  (1) 
  0.0000

>  <i_epik_Tot_Q>  (1) 
0

>  <s_m_job_name>  (1) 
glide-dock_SP_p38_core_cons_top_1

>  <r_i_docking_score>  (1) 
-6.80362854889194

>  <r_i_glide_gscore>  (1) 
-6.80362854889194

>  <r_i_glide_emodel>  (1) 
-45.0467058057781

>  <index_string>  (1) 
20:0:0

$$$$
