5:0:0
     RDKit          3D

 41 43  0  0  1  0  0  0  0  0999 V2000
   33.5750   35.9810   20.1120 C   0  0  0  0  0  0  0  0  0  0  0  0
   33.5250   37.3640   20.2710 C   0  0  0  0  0  0  0  0  0  0  0  0
   33.2820   37.9080   21.5260 C   0  0  0  0  0  0  0  0  0  0  0  0
   33.2370   39.2870   21.7190 C   0  0  0  0  0  0  0  0  0  0  0  0
   33.0030   39.7870   22.9590 N   0  0  0  0  0  0  0  0  0  0  0  0
   32.8100   38.9630   24.0240 C   0  0  0  0  0  0  0  0  0  0  0  0
   32.5640   39.5260   25.3140 N   0  0  0  0  0  0  0  0  0  0  0  0
   32.8480   37.6130   23.8530 N   0  0  0  0  0  0  0  0  0  0  0  0
   33.0800   37.0620   22.6290 C   0  0  0  0  0  0  0  0  0  0  0  0
   33.1100   35.7030   22.4630 N   0  0  0  0  0  0  0  0  0  0  0  0
   32.8810   34.8300   23.6110 C   0  0  0  0  0  0  0  0  0  0  0  0
   33.3380   35.1510   21.2280 C   0  0  0  0  0  0  0  0  0  0  0  0
   33.3090   33.8980   21.0810 O   0  0  0  0  0  0  0  0  0  0  0  0
   32.3740   38.7140   26.5070 C   0  0  0  0  0  0  0  0  0  0  0  0
   32.5690   39.5630   27.7490 C   0  0  0  0  0  0  0  0  0  0  0  0
   30.9710   38.1460   26.5100 C   0  0  0  0  0  0  0  0  0  0  0  0
   33.8180   35.4640   18.8320 O   0  0  0  0  0  0  0  0  0  0  0  0
   37.4300   35.9610   18.0830 C   0  0  0  0  0  0  0  0  0  0  0  0
   36.2410   35.8290   18.8030 C   0  0  0  0  0  0  0  0  0  0  0  0
   35.0290   35.5810   18.1360 C   0  0  0  0  0  0  0  0  0  0  0  0
   35.0250   35.4860   16.7370 C   0  0  0  0  0  0  0  0  0  0  0  0
   33.8640   35.2620   16.0720 F   0  0  0  0  0  0  0  0  0  0  0  0
   36.2160   35.6190   16.0180 C   0  0  0  0  0  0  0  0  0  0  0  0
   37.4180   35.8550   16.6900 C   0  0  0  0  0  0  0  0  0  0  0  0
   38.5710   35.9830   15.9920 F   0  0  0  0  0  0  0  0  0  0  0  0
   33.6776   38.0241   19.4044 H   0  0  0  0  0  0  0  0  0  0  0  0
   33.3906   39.9684   20.8692 H   0  0  0  0  0  0  0  0  0  0  0  0
   32.5192   40.5511   25.4036 H   0  0  0  0  0  0  0  0  0  0  0  0
   33.0304   35.3994   24.5402 H   0  0  0  0  0  0  0  0  0  0  0  0
   31.8513   34.4444   23.5788 H   0  0  0  0  0  0  0  0  0  0  0  0
   33.5888   33.9886   23.5788 H   0  0  0  0  0  0  0  0  0  0  0  0
   33.1098   37.8963   26.5058 H   0  0  0  0  0  0  0  0  0  0  0  0
   32.4261   38.9407   28.6447 H   0  0  0  0  0  0  0  0  0  0  0  0
   33.5865   39.9809   27.7514 H   0  0  0  0  0  0  0  0  0  0  0  0
   31.8358   40.3830   27.7514 H   0  0  0  0  0  0  0  0  0  0  0  0
   30.6330   38.0092   27.5478 H   0  0  0  0  0  0  0  0  0  0  0  0
   30.2931   38.8405   25.9922 H   0  0  0  0  0  0  0  0  0  0  0  0
   30.9672   37.1755   25.9922 H   0  0  0  0  0  0  0  0  0  0  0  0
   38.3759   36.1484   18.6124 H   0  0  0  0  0  0  0  0  0  0  0  0
   36.2529   35.9197   19.8992 H   0  0  0  0  0  0  0  0  0  0  0  0
   36.2071   35.5377   14.9210 H   0  0  0  0  0  0  0  0  0  0  0  0
  1  2  2  0
  1 12  1  0
  1 17  1  0
  2  3  1  0
  2 26  1  0
  3  4  2  0
  3  9  1  0
  4  5  1  0
  4 27  1  0
  5  6  2  0
  6  7  1  0
  6  8  1  0
  7 14  1  0
  7 28  1  0
  8  9  2  0
  9 10  1  0
 10 11  1  0
 10 12  1  0
 11 29  1  0
 11 30  1  0
 11 31  1  0
 12 13  2  0
 14 16  1  0
 14 15  1  0
 14 32  1  0
 15 33  1  0
 15 34  1  0
 15 35  1  0
 16 36  1  0
 16 37  1  0
 16 38  1  0
 17 20  1  0
 18 19  2  0
 18 24  1  0
 18 39  1  0
 19 20  1  0
 19 40  1  0
 20 21  2  0
 21 22  1  0
 21 23  1  0
 23 24  2  0
 23 41  1  0
 24 25  1  0
M  END
>  <s_m_entry_id>  (1) 
1359

>  <MODEL>  (1) 
1

>  <REMARK>  (1) 
 VINA RESULT:    -8.269      0.000      0.000
 INTER + INTRA:         -10.072
 INTER:                  -9.719
 INTRA:                  -0.353
 UNBOUND:                -0.353
  Name = /scratch/kmzp800/tmpx9528uk7/tmppswoq_0l.pdb
  6 active torsions:
  status: ('A' for Active; 'I' for Inactive)
    1  A    between atoms: C3_3  and  O1_4
    2  A    between atoms: O1_4  and  C4_5
    3  A    between atoms: N2_11  and  C9_12
    4  A    between atoms: C9_12  and  C10_13
    5  A    between atoms: C9_12  and  C11_14
    6  A    between atoms: N4_17  and  C13_18
                            x       y       z     vdW  Elec       q    Type
                         _______ _______ _______ _____ _____    ______ ____

>  <TORSDO>  (1) 
F 3

>  <grid_id>  (1) 
p38-prepared

>  <grid_path>  (1) 
/projects/mai/users/kmzp800_harry/pmx_colab/docking_jobs/p38/vina_docking/input_files/p38_vina.pdbqt

>  <grid_filename>  (1) 
p38_vina.pdbqt

>  <docking_score>  (1) 
-8.269

>  <compound_name>  (1) 
lig_p38a_3fly

>  <index_string>  (1) 
5:0:0

>  <s_m_Source_Path>  (1) 
/projects/mai/users/kmzp800_harry/pmx_colab/docking_jobs/p38

>  <s_m_Source_File>  (1) 
p38_confs_vina_naive.sdf

>  <i_m_Source_File_Index>  (1) 
6

$$$$
