10:0:0
     RDKit          3D

 37 39  0  0  1  0  0  0  0  0999 V2000
  -14.4404  -15.2731  -27.8112 C   0  0  0  0  0  0  0  0  0  0  0  0
  -15.0003  -15.9606  -26.7260 C   0  0  0  0  0  0  0  0  0  0  0  0
  -14.4483  -13.8829  -27.8164 C   0  0  0  0  0  0  0  0  0  0  0  0
  -15.6476  -15.2716  -25.6739 C   0  0  0  0  0  0  0  0  0  0  0  0
  -14.8483  -17.3324  -26.6946 N   0  0  0  0  0  0  0  0  0  0  0  0
  -15.0296  -13.2158  -26.7391 C   0  0  0  0  0  0  0  0  0  0  0  0
  -15.6681  -13.8713  -25.6766 C   0  0  0  0  0  0  0  0  0  0  0  0
  -16.2364  -16.0783  -24.5605 C   0  0  0  0  0  0  0  0  0  0  0  0
  -16.0480  -17.3991  -24.6690 N   0  0  0  0  0  0  0  0  0  0  0  0
  -16.8454  -15.5748  -23.6230 O   0  0  0  0  0  0  0  0  0  0  0  0
  -15.3670  -18.0193  -25.7232 C   0  0  0  0  0  0  0  0  0  0  0  0
  -15.2665  -19.4801  -25.8015 C   0  0  0  0  0  0  0  0  0  0  0  0
  -15.5625  -20.2894  -24.6896 C   0  0  0  0  0  0  0  0  0  0  0  0
  -15.4301  -21.6787  -24.7997 C   0  0  0  0  0  0  0  0  0  0  0  0
  -14.9852  -22.2488  -26.0123 C   0  0  0  0  0  0  0  0  0  0  0  0
  -14.6609  -21.4307  -27.0873 C   0  0  0  0  0  0  0  0  0  0  0  0
  -14.8482  -20.0590  -27.0139 C   0  0  0  0  0  0  0  0  0  0  0  0
  -14.7638  -23.7255  -26.1536 C   0  0  0  0  0  0  0  0  0  0  0  0
  -15.6482  -24.3726  -25.3054 O   0  0  0  0  0  0  0  0  0  0  0  0
  -14.8480  -11.5665  -26.7386 Cl  0  0  0  0  0  0  0  0  0  0  0  0
  -13.2879  -24.0052  -25.8120 C   0  0  0  0  0  0  0  0  0  0  0  0
  -15.1805  -24.3197  -27.5106 C   0  0  0  0  0  0  0  0  0  0  0  0
  -13.9625  -15.8131  -28.6156 H   0  0  0  0  0  0  0  0  0  0  0  0
  -13.9743  -13.3330  -28.6163 H   0  0  0  0  0  0  0  0  0  0  0  0
  -16.1147  -13.3126  -24.8651 H   0  0  0  0  0  0  0  0  0  0  0  0
  -16.4982  -17.9825  -23.9740 H   0  0  0  0  0  0  0  0  0  0  0  0
  -15.8819  -19.8657  -23.7494 H   0  0  0  0  0  0  0  0  0  0  0  0
  -15.6457  -22.2959  -23.9411 H   0  0  0  0  0  0  0  0  0  0  0  0
  -14.2083  -21.8642  -27.9431 H   0  0  0  0  0  0  0  0  0  0  0  0
  -14.5875  -19.4702  -27.8821 H   0  0  0  0  0  0  0  0  0  0  0  0
  -15.5181  -25.3067  -25.3666 H   0  0  0  0  0  0  0  0  0  0  0  0
  -12.6169  -23.4402  -26.4581 H   0  0  0  0  0  0  0  0  0  0  0  0
  -13.0313  -25.0562  -25.9394 H   0  0  0  0  0  0  0  0  0  0  0  0
  -13.0587  -23.7262  -24.7822 H   0  0  0  0  0  0  0  0  0  0  0  0
  -14.5581  -23.9824  -28.3358 H   0  0  0  0  0  0  0  0  0  0  0  0
  -15.1031  -25.4080  -27.5057 H   0  0  0  0  0  0  0  0  0  0  0  0
  -16.2131  -24.0663  -27.7567 H   0  0  0  0  0  0  0  0  0  0  0  0
  1  2  2  0
  1  3  1  0
  1 23  1  0
  2  4  1  0
  2  5  1  0
  3  6  2  0
  3 24  1  0
  4  7  2  0
  4  8  1  0
  5 11  2  0
  6  7  1  0
  6 20  1  0
  7 25  1  0
  8  9  1  0
  8 10  2  0
  9 11  1  0
  9 26  1  0
 11 12  1  0
 12 13  2  0
 12 17  1  0
 13 14  1  0
 13 27  1  0
 14 15  2  0
 14 28  1  0
 15 16  1  0
 15 18  1  0
 16 17  2  0
 16 29  1  0
 17 30  1  0
 18 19  1  0
 18 21  1  0
 18 22  1  0
 19 31  1  0
 21 32  1  0
 21 33  1  0
 21 34  1  0
 22 35  1  0
 22 36  1  0
 22 37  1  0
M  END
>  <s_m_entry_id>  (1) 
507

>  <Name>  (1) 
5e

>  <IC50[nM]>  (1) 
39

>  <s_m_Source_Path>  (1) 
/projects/mai/users/kmzp800_harry/pmx_colab/docking_jobs/tnks2

>  <s_m_Source_File>  (1) 
tnks2_lig.sdf

>  <i_m_Source_File_Index>  (1) 
23

>  <s_m_job_name>  (1) 
glide-dock_SP_tnks_mcs_fallabck

>  <r_i_docking_score>  (1) 
-10.0732872317482

>  <r_i_glide_gscore>  (1) 
-10.0732872317482

>  <r_i_glide_emodel>  (1) 
-42.9172163661598

>  <index_string>  (1) 
10:0:0

$$$$
