31:0:0
     RDKit          3D

 50 54  0  0  1  0  0  0  0  0999 V2000
   35.2090   35.9780   21.1430 C   0  0  0  0  0  0  0  0  0  0  0  0
   35.2650   35.4810   22.4410 C   0  0  0  0  0  0  0  0  0  0  0  0
   34.9460   36.3050   23.5110 C   0  0  0  0  0  0  0  0  0  0  0  0
   35.0150   35.8360   24.8200 C   0  0  0  0  0  0  0  0  0  0  0  0
   34.7150   36.6680   25.8510 N   0  0  0  0  0  0  0  0  0  0  0  0
   34.3500   37.9600   25.6270 C   0  0  0  0  0  0  0  0  0  0  0  0
   34.0390   38.8340   26.7180 N   0  0  0  0  0  0  0  0  0  0  0  0
   34.2750   38.4310   24.3530 N   0  0  0  0  0  0  0  0  0  0  0  0
   34.5580   37.6370   23.2820 C   0  0  0  0  0  0  0  0  0  0  0  0
   34.4790   38.1230   21.9980 N   0  0  0  0  0  0  0  0  0  0  0  0
   34.8550   37.3290   20.9380 C   0  0  0  0  0  0  0  0  0  0  0  0
   34.9140   37.8120   19.7730 O   0  0  0  0  0  0  0  0  0  0  0  0
   34.0770   38.4520   28.1270 C   0  0  0  0  0  0  0  0  0  0  0  0
   35.4110   37.7900   28.4790 C   0  0  0  0  0  0  0  0  0  0  0  0
   35.3300   37.2360   29.9010 C   0  0  0  0  0  0  0  0  0  0  0  0
   34.2850   36.2980   29.9930 O   0  0  0  0  0  0  0  0  0  0  0  0
   33.0830   37.0230   29.9070 C   0  0  0  0  0  0  0  0  0  0  0  0
   32.8930   37.5510   28.4840 C   0  0  0  0  0  0  0  0  0  0  0  0
   34.1070   39.5320   21.7660 C   0  0  0  0  0  0  0  0  0  0  0  0
   33.0250   39.6430   20.6970 C   0  0  0  0  0  0  0  0  0  0  0  0
   32.6520   39.7790   22.1490 C   0  0  0  0  0  0  0  0  0  0  0  0
   35.5570   35.1230   20.0890 O   0  0  0  0  0  0  0  0  0  0  0  0
   38.3260   36.1790   17.8850 C   0  0  0  0  0  0  0  0  0  0  0  0
   37.6020   35.8000   19.0180 C   0  0  0  0  0  0  0  0  0  0  0  0
   36.2370   35.5070   18.9240 C   0  0  0  0  0  0  0  0  0  0  0  0
   35.6040   35.5680   17.6650 C   0  0  0  0  0  0  0  0  0  0  0  0
   34.3010   35.2240   17.5180 F   0  0  0  0  0  0  0  0  0  0  0  0
   36.3340   35.9480   16.5350 C   0  0  0  0  0  0  0  0  0  0  0  0
   37.6900   36.2600   16.6440 C   0  0  0  0  0  0  0  0  0  0  0  0
   38.3920   36.6290   15.5460 F   0  0  0  0  0  0  0  0  0  0  0  0
   35.5616   34.4368   22.6189 H   0  0  0  0  0  0  0  0  0  0  0  0
   35.3114   34.7955   25.0187 H   0  0  0  0  0  0  0  0  0  0  0  0
   33.7690   39.8021   26.4926 H   0  0  0  0  0  0  0  0  0  0  0  0
   33.9904   39.3672   28.7310 H   0  0  0  0  0  0  0  0  0  0  0  0
   35.6133   36.9699   27.7744 H   0  0  0  0  0  0  0  0  0  0  0  0
   36.2224   38.5298   28.4134 H   0  0  0  0  0  0  0  0  0  0  0  0
   36.2818   36.7473   30.1564 H   0  0  0  0  0  0  0  0  0  0  0  0
   35.1359   38.0627   30.6002 H   0  0  0  0  0  0  0  0  0  0  0  0
   32.2409   36.3648   30.1671 H   0  0  0  0  0  0  0  0  0  0  0  0
   33.1217   37.8718   30.6056 H   0  0  0  0  0  0  0  0  0  0  0  0
   31.9588   38.1289   28.4263 H   0  0  0  0  0  0  0  0  0  0  0  0
   32.8396   36.7089   27.7783 H   0  0  0  0  0  0  0  0  0  0  0  0
   35.0706   40.0235   21.9657 H   0  0  0  0  0  0  0  0  0  0  0  0
   32.9933   40.5228   20.0374 H   0  0  0  0  0  0  0  0  0  0  0  0
   32.6876   39.0059   19.8662 H   0  0  0  0  0  0  0  0  0  0  0  0
   32.0723   38.9855   22.6434 H   0  0  0  0  0  0  0  0  0  0  0  0
   32.1257   40.5380   22.7464 H   0  0  0  0  0  0  0  0  0  0  0  0
   39.3973   36.4137   17.9702 H   0  0  0  0  0  0  0  0  0  0  0  0
   38.1090   35.7314   19.9918 H   0  0  0  0  0  0  0  0  0  0  0  0
   35.8372   36.0014   15.5550 H   0  0  0  0  0  0  0  0  0  0  0  0
  1  2  2  0
  1 11  1  0
  1 22  1  0
  2  3  1  0
  3  4  2  0
  3  9  1  0
  4  5  1  0
  5  6  2  0
  6  7  1  0
  6  8  1  0
  7 13  1  0
  8  9  2  0
  9 10  1  0
 10 11  1  0
 10 19  1  0
 11 12  2  0
 13 14  1  0
 13 18  1  0
 14 15  1  0
 15 16  1  0
 16 17  1  0
 17 18  1  0
 19 21  1  0
 19 20  1  0
 20 21  1  0
 22 25  1  0
 23 24  2  0
 23 29  1  0
 24 25  1  0
 25 26  2  0
 26 27  1  0
 26 28  1  0
 28 29  2  0
 29 30  1  0
  2 31  1  0
  4 32  1  0
  7 33  1  0
 13 34  1  0
 14 35  1  0
 14 36  1  0
 15 37  1  0
 15 38  1  0
 17 39  1  0
 17 40  1  0
 18 41  1  0
 18 42  1  0
 19 43  1  0
 20 44  1  0
 20 45  1  0
 21 46  1  0
 21 47  1  0
 23 48  1  0
 24 49  1  0
 28 50  1  0
M  END
>  <s_m_entry_id>  (1) 
81

>  <MODEL>  (1) 
13

>  <REMARK>  (1) 
 VINA RESULT:    -9.064      4.159      9.399
 INTER + INTRA:          -7.775
 INTER:                  -9.579
 INTRA:                   1.804
 UNBOUND:                 3.409
  Name = /scratch/kmzp800/tmphe1y64up/tmpdg8207nq.pdb
  4 active torsions:
  status: ('A' for Active; 'I' for Inactive)
    1  A    between atoms: C3_3  and  O1_4
    2  A    between atoms: O1_4  and  C4_5
    3  A    between atoms: N2_11  and  C9_12
    4  A    between atoms: N4_20  and  C15_21
                            x       y       z     vdW  Elec       q    Type
                         _______ _______ _______ _____ _____    ______ ____

>  <TORSDO>  (1) 
F 4

>  <grid_id>  (1) 
p38-prepared

>  <grid_path>  (1) 
/projects/mai/users/kmzp800_harry/pmx_colab/docking_jobs/p38/vina_docking/input_files/p38_vina.pdbqt

>  <grid_filename>  (1) 
p38_vina.pdbqt

>  <docking_score>  (1) 
-9.064

>  <compound_name>  (1) 
lig_p38a_2m

>  <index_string>  (1) 
31:0:0

$$$$
