11:0:0
     RDKit          3D

 49 52  0  0  1  0  0  0  0  0999 V2000
  -14.4482  -14.8996  -27.6757 C   0  0  0  0  0  0  0  0  0  0  0  0
  -15.0106  -15.7135  -26.6641 C   0  0  0  0  0  0  0  0  0  0  0  0
  -14.4482  -13.5089  -27.5549 C   0  0  0  0  0  0  0  0  0  0  0  0
  -15.6482  -15.0920  -25.5608 C   0  0  0  0  0  0  0  0  0  0  0  0
  -14.8482  -17.1118  -26.7096 N   0  0  0  0  0  0  0  0  0  0  0  0
  -15.0011  -12.9043  -26.4319 C   0  0  0  0  0  0  0  0  0  0  0  0
  -15.6482  -13.6792  -25.4423 C   0  0  0  0  0  0  0  0  0  0  0  0
  -16.2326  -15.9903  -24.5097 C   0  0  0  0  0  0  0  0  0  0  0  0
  -16.0295  -17.3016  -24.6909 N   0  0  0  0  0  0  0  0  0  0  0  0
  -16.8482  -15.5727  -23.5387 O   0  0  0  0  0  0  0  0  0  0  0  0
  -15.3103  -17.8663  -25.7493 C   0  0  0  0  0  0  0  0  0  0  0  0
  -15.1319  -19.3484  -25.8035 C   0  0  0  0  0  0  0  0  0  0  0  0
  -15.2491  -20.1637  -24.6520 C   0  0  0  0  0  0  0  0  0  0  0  0
  -15.1016  -21.5657  -24.7487 C   0  0  0  0  0  0  0  0  0  0  0  0
  -14.8311  -22.1669  -25.9967 C   0  0  0  0  0  0  0  0  0  0  0  0
  -14.7027  -21.3424  -27.1280 C   0  0  0  0  0  0  0  0  0  0  0  0
  -14.8482  -19.9553  -27.0397 C   0  0  0  0  0  0  0  0  0  0  0  0
  -13.7692  -15.4628  -28.8890 C   0  0  0  0  0  0  0  0  0  0  0  0
  -14.8482  -11.5727  -26.3386 F   0  0  0  0  0  0  0  0  0  0  0  0
  -14.7157  -23.6793  -26.1561 C   0  0  0  0  0  0  0  0  0  0  0  0
  -15.8961  -24.2168  -26.9904 C   0  0  0  0  0  0  0  0  0  0  0  0
  -15.7596  -25.7154  -27.2838 C   0  0  0  0  0  0  0  0  0  0  0  0
  -14.4899  -25.9917  -27.9991 N   0  0  0  0  0  0  0  0  0  0  0  0
  -13.3048  -25.5821  -27.2058 C   0  0  0  0  0  0  0  0  0  0  0  0
  -13.3673  -24.0960  -26.7970 C   0  0  0  0  0  0  0  0  0  0  0  0
  -14.3981  -27.3942  -28.4626 C   0  0  0  0  0  0  0  0  0  0  0  0
  -13.9740  -12.8903  -28.3042 H   0  0  0  0  0  0  0  0  0  0  0  0
  -16.0897  -13.1979  -24.5808 H   0  0  0  0  0  0  0  0  0  0  0  0
  -16.4679  -17.9220  -24.0218 H   0  0  0  0  0  0  0  0  0  0  0  0
  -15.4705  -19.7299  -23.6879 H   0  0  0  0  0  0  0  0  0  0  0  0
  -15.2108  -22.1747  -23.8637 H   0  0  0  0  0  0  0  0  0  0  0  0
  -14.4814  -21.7592  -28.0864 H   0  0  0  0  0  0  0  0  0  0  0  0
  -14.7414  -19.3665  -27.9393 H   0  0  0  0  0  0  0  0  0  0  0  0
  -14.2000  -16.4246  -29.1386 H   0  0  0  0  0  0  0  0  0  0  0  0
  -13.9125  -14.7988  -29.7425 H   0  0  0  0  0  0  0  0  0  0  0  0
  -12.6988  -15.5727  -28.7384 H   0  0  0  0  0  0  0  0  0  0  0  0
  -14.7745  -24.1232  -25.1622 H   0  0  0  0  0  0  0  0  0  0  0  0
  -16.8358  -24.0265  -26.4712 H   0  0  0  0  0  0  0  0  0  0  0  0
  -15.9616  -23.6828  -27.9384 H   0  0  0  0  0  0  0  0  0  0  0  0
  -15.8057  -26.2880  -26.3570 H   0  0  0  0  0  0  0  0  0  0  0  0
  -16.6033  -26.0397  -27.8948 H   0  0  0  0  0  0  0  0  0  0  0  0
  -13.2197  -26.2293  -26.3386 H   0  0  0  0  0  0  0  0  0  0  0  0
  -12.4006  -25.7505  -27.7927 H   0  0  0  0  0  0  0  0  0  0  0  0
  -13.1755  -23.5107  -27.6934 H   0  0  0  0  0  0  0  0  0  0  0  0
  -12.5467  -23.8629  -26.1161 H   0  0  0  0  0  0  0  0  0  0  0  0
  -14.3908  -28.0872  -27.6200 H   0  0  0  0  0  0  0  0  0  0  0  0
  -15.2435  -27.6466  -29.1039 H   0  0  0  0  0  0  0  0  0  0  0  0
  -13.4868  -27.5518  -29.0408 H   0  0  0  0  0  0  0  0  0  0  0  0
  -14.4946  -25.4169  -28.8299 H   0  0  0  0  0  0  0  0  0  0  0  0
  1  2  2  0
  1  3  1  0
  1 18  1  0
  2  4  1  0
  2  5  1  0
  3  6  2  0
  3 27  1  0
  4  7  2  0
  4  8  1  0
  5 11  2  0
  6  7  1  0
  6 19  1  0
  7 28  1  0
  8  9  1  0
  8 10  2  0
  9 11  1  0
  9 29  1  0
 11 12  1  0
 12 13  2  0
 12 17  1  0
 13 14  1  0
 13 30  1  0
 14 15  2  0
 14 31  1  0
 15 16  1  0
 15 20  1  0
 16 17  2  0
 16 32  1  0
 17 33  1  0
 18 34  1  0
 18 35  1  0
 18 36  1  0
 20 21  1  0
 20 25  1  0
 20 37  1  0
 21 22  1  0
 21 38  1  0
 21 39  1  0
 22 23  1  0
 22 40  1  0
 22 41  1  0
 23 24  1  0
 23 26  1  0
 23 49  1  0
 24 25  1  0
 24 42  1  0
 24 43  1  0
 25 44  1  0
 25 45  1  0
 26 46  1  0
 26 47  1  0
 26 48  1  0
M  CHG  1  23   1
M  END
>  <s_m_entry_id>  (1) 
426

>  <Name>  (1) 
8f

>  <IC50[nM]>  (1) 
2.2

>  <s_m_Source_Path>  (1) 
/projects/mai/users/kmzp800_harry/pmx_colab/docking_jobs/tnks2

>  <s_m_Source_File>  (1) 
tnks2_lig.sdf

>  <i_m_Source_File_Index>  (1) 
12

>  <s_m_job_name>  (1) 
glide-dock_SP_tnks2_no_cons

>  <r_i_docking_score>  (1) 
-10.5905601340054

>  <r_i_glide_gscore>  (1) 
-10.5905601340054

>  <r_i_glide_emodel>  (1) 
-58.7460602172554

>  <index_string>  (1) 
11:0:0

$$$$
