20:0:0
     RDKit          3D

 40 42  0  0  1  0  0  0  0  0999 V2000
  -14.4493  -14.7292  -27.6042 C   0  0  0  0  0  0  0  0  0  0  0  0
  -15.0293  -15.5865  -26.6376 C   0  0  0  0  0  0  0  0  0  0  0  0
  -14.5464  -13.3314  -27.4722 C   0  0  0  0  0  0  0  0  0  0  0  0
  -15.7206  -15.0108  -25.5431 C   0  0  0  0  0  0  0  0  0  0  0  0
  -14.8501  -16.9855  -26.7223 N   0  0  0  0  0  0  0  0  0  0  0  0
  -15.2480  -12.7728  -26.3938 C   0  0  0  0  0  0  0  0  0  0  0  0
  -15.8440  -13.6082  -25.4274 C   0  0  0  0  0  0  0  0  0  0  0  0
  -16.2865  -15.9434  -24.5153 C   0  0  0  0  0  0  0  0  0  0  0  0
  -16.0486  -17.2380  -24.7215 N   0  0  0  0  0  0  0  0  0  0  0  0
  -16.9188  -15.5724  -23.5432 O   0  0  0  0  0  0  0  0  0  0  0  0
  -15.3065  -17.7630  -25.7780 C   0  0  0  0  0  0  0  0  0  0  0  0
  -15.0903  -19.2335  -25.7986 C   0  0  0  0  0  0  0  0  0  0  0  0
  -15.1182  -19.9741  -24.5949 C   0  0  0  0  0  0  0  0  0  0  0  0
  -14.8480  -21.3534  -24.6018 C   0  0  0  0  0  0  0  0  0  0  0  0
  -14.5467  -22.0103  -25.8138 C   0  0  0  0  0  0  0  0  0  0  0  0
  -14.5931  -21.2781  -27.0127 C   0  0  0  0  0  0  0  0  0  0  0  0
  -14.8483  -19.8999  -27.0123 C   0  0  0  0  0  0  0  0  0  0  0  0
  -14.1722  -23.4864  -25.8436 C   0  0  0  0  0  0  0  0  0  0  0  0
  -13.4758  -23.8497  -27.0205 O   0  0  0  0  0  0  0  0  0  0  0  0
  -15.4565  -24.3310  -25.8245 C   0  0  0  0  0  0  0  0  0  0  0  0
  -13.1806  -23.8043  -24.7110 C   0  0  0  0  0  0  0  0  0  0  0  0
  -13.7056  -15.2884  -28.7908 C   0  0  0  0  0  0  0  0  0  0  0  0
  -14.0927  -12.6760  -28.2032 H   0  0  0  0  0  0  0  0  0  0  0  0
  -15.3213  -11.6983  -26.3394 H   0  0  0  0  0  0  0  0  0  0  0  0
  -16.3800  -13.1726  -24.5953 H   0  0  0  0  0  0  0  0  0  0  0  0
  -16.4728  -17.8823  -24.0665 H   0  0  0  0  0  0  0  0  0  0  0  0
  -15.3266  -19.4980  -23.6486 H   0  0  0  0  0  0  0  0  0  0  0  0
  -14.8552  -21.8914  -23.6658 H   0  0  0  0  0  0  0  0  0  0  0  0
  -14.3865  -21.7713  -27.9398 H   0  0  0  0  0  0  0  0  0  0  0  0
  -14.8322  -19.3597  -27.9477 H   0  0  0  0  0  0  0  0  0  0  0  0
  -12.5988  -23.5044  -26.9571 H   0  0  0  0  0  0  0  0  0  0  0  0
  -15.9900  -24.2267  -24.8794 H   0  0  0  0  0  0  0  0  0  0  0  0
  -15.2538  -25.3866  -25.9843 H   0  0  0  0  0  0  0  0  0  0  0  0
  -16.1365  -24.0231  -26.6196 H   0  0  0  0  0  0  0  0  0  0  0  0
  -13.6487  -23.7802  -23.7288 H   0  0  0  0  0  0  0  0  0  0  0  0
  -12.7042  -24.7721  -24.8298 H   0  0  0  0  0  0  0  0  0  0  0  0
  -12.3736  -23.0732  -24.7042 H   0  0  0  0  0  0  0  0  0  0  0  0
  -13.6661  -14.5751  -29.6142 H   0  0  0  0  0  0  0  0  0  0  0  0
  -12.6940  -15.5697  -28.5298 H   0  0  0  0  0  0  0  0  0  0  0  0
  -14.2092  -16.1847  -29.1365 H   0  0  0  0  0  0  0  0  0  0  0  0
  1  2  2  0
  1  3  1  0
  1 22  1  0
  2  4  1  0
  2  5  1  0
  3  6  2  0
  3 23  1  0
  4  7  2  0
  4  8  1  0
  5 11  2  0
  6  7  1  0
  6 24  1  0
  7 25  1  0
  8  9  1  0
  8 10  2  0
  9 11  1  0
  9 26  1  0
 11 12  1  0
 12 13  2  0
 12 17  1  0
 13 14  1  0
 13 27  1  0
 14 15  2  0
 14 28  1  0
 15 16  1  0
 15 18  1  0
 16 17  2  0
 16 29  1  0
 17 30  1  0
 18 19  1  0
 18 20  1  0
 18 21  1  0
 19 31  1  0
 20 32  1  0
 20 33  1  0
 20 34  1  0
 21 35  1  0
 21 36  1  0
 21 37  1  0
 22 38  1  0
 22 39  1  0
 22 40  1  0
M  END
>  <s_m_entry_id>  (1) 
435

>  <Name>  (1) 
5i

>  <IC50[nM]>  (1) 
1.4

>  <s_m_Source_Path>  (1) 
/projects/mai/users/kmzp800_harry/pmx_colab/docking_jobs/tnks2

>  <s_m_Source_File>  (1) 
tnks2_lig.sdf

>  <i_m_Source_File_Index>  (1) 
21

>  <s_m_job_name>  (1) 
glide-dock_SP_tnks2_no_cons

>  <r_i_docking_score>  (1) 
-10.6305128204978

>  <r_i_glide_gscore>  (1) 
-10.6305128204978

>  <r_i_glide_emodel>  (1) 
-64.6451168237014

>  <index_string>  (1) 
20:0:0

$$$$
