18:0:0
     RDKit          3D

 50 54  0  0  1  0  0  0  0  0999 V2000
   -4.5308   -3.1943   15.5174 C   0  0  0  0  0  0  0  0  0  0  0  0
   -3.8858   -2.2400   14.6855 O   0  0  0  0  0  0  0  0  0  0  0  0
   -2.5281   -2.0615   14.8256 C   0  0  0  0  0  0  0  0  0  0  0  0
   -1.7374   -2.8216   15.7142 C   0  0  0  0  0  0  0  0  0  0  0  0
   -0.3627   -2.5842   15.8173 C   0  0  0  0  0  0  0  0  0  0  0  0
    0.2522   -1.5652   15.0707 C   0  0  0  0  0  0  0  0  0  0  0  0
    1.6211   -1.3531   15.2875 N   0  0  0  0  0  0  0  0  0  0  0  0
    2.5310   -0.4312   14.7278 C   0  0  0  0  0  0  0  0  0  0  0  0
    2.1953    0.3803   13.7582 N   0  0  0  0  0  0  0  0  0  0  0  0
    3.1229    1.2592   13.2305 C   0  0  0  0  0  0  0  0  0  0  0  0
    4.4227    1.2940   13.6865 C   0  0  0  0  0  0  0  0  0  0  0  0
    4.7583    0.4944   14.7304 N   0  0  0  0  0  0  0  0  0  0  0  0
    5.9076    0.3876   15.4879 C   0  0  0  0  0  0  0  0  0  0  0  0
    5.6136   -0.4974   16.4933 C   0  0  0  0  0  0  0  0  0  0  0  0
    4.3681   -1.0613   16.3268 N   0  0  0  0  0  0  0  0  0  0  0  0
    3.8342   -0.4136   15.2972 C   0  0  0  0  0  0  0  0  0  0  0  0
    2.6509    2.1729   12.1579 C   0  0  0  0  0  0  0  0  0  0  0  0
    3.5603    2.6787   11.1890 C   0  0  0  0  0  0  0  0  0  0  0  0
    3.1486    3.5045   10.1304 C   0  0  0  0  0  0  0  0  0  0  0  0
    1.7918    3.8515   10.0425 C   0  0  0  0  0  0  0  0  0  0  0  0
    1.3236    4.6247    8.9604 N   0  0  0  0  0  0  0  0  0  0  0  0
    0.0718    5.0971    8.9135 C   0  0  0  0  0  0  0  0  0  0  0  0
   -0.3697    5.7065    7.9399 O   0  0  0  0  0  0  0  0  0  0  0  0
   -0.8023    4.8784   10.1633 C   0  0  0  0  0  0  0  0  0  0  0  0
   -0.4619    3.6962   10.9122 O   0  0  0  0  0  0  0  0  0  0  0  0
    0.8712    3.3882   11.0174 C   0  0  0  0  0  0  0  0  0  0  0  0
    1.2938    2.5524   12.0705 C   0  0  0  0  0  0  0  0  0  0  0  0
   -0.5342   -0.8122   14.1741 C   0  0  0  0  0  0  0  0  0  0  0  0
   -1.9193   -1.0544   14.0414 C   0  0  0  0  0  0  0  0  0  0  0  0
   -2.7356   -0.3177   13.2049 O   0  0  0  0  0  0  0  0  0  0  0  0
   -2.1710    0.6958   12.3799 C   0  0  0  0  0  0  0  0  0  0  0  0
   -5.5940   -3.2070   15.2793 H   0  0  0  0  0  0  0  0  0  0  0  0
   -4.4324   -2.9405   16.5733 H   0  0  0  0  0  0  0  0  0  0  0  0
   -4.1438   -4.1997   15.3492 H   0  0  0  0  0  0  0  0  0  0  0  0
   -2.1593   -3.5927   16.3356 H   0  0  0  0  0  0  0  0  0  0  0  0
    0.2172   -3.1927   16.4922 H   0  0  0  0  0  0  0  0  0  0  0  0
    2.0615   -2.0200   15.9158 H   0  0  0  0  0  0  0  0  0  0  0  0
    5.1966    1.9531   13.3104 H   0  0  0  0  0  0  0  0  0  0  0  0
    6.7738    0.9857   15.2436 H   0  0  0  0  0  0  0  0  0  0  0  0
    6.1785   -0.7631   17.3564 H   0  0  0  0  0  0  0  0  0  0  0  0
    4.5998    2.4011   11.2338 H   0  0  0  0  0  0  0  0  0  0  0  0
    3.8746    3.8427    9.4027 H   0  0  0  0  0  0  0  0  0  0  0  0
    1.9464    4.8061    8.1857 H   0  0  0  0  0  0  0  0  0  0  0  0
   -1.8485    4.8187    9.8614 H   0  0  0  0  0  0  0  0  0  0  0  0
   -0.7072    5.7514   10.8104 H   0  0  0  0  0  0  0  0  0  0  0  0
    0.5854    2.1867   12.8082 H   0  0  0  0  0  0  0  0  0  0  0  0
   -0.0793   -0.0297   13.5995 H   0  0  0  0  0  0  0  0  0  0  0  0
   -2.9553    1.1030   11.7383 H   0  0  0  0  0  0  0  0  0  0  0  0
   -1.7674    1.5205   12.9693 H   0  0  0  0  0  0  0  0  0  0  0  0
   -1.3930    0.2982   11.7282 H   0  0  0  0  0  0  0  0  0  0  0  0
  1  2  1  0
  1 32  1  0
  1 33  1  0
  1 34  1  0
  2  3  1  0
  3  4  2  0
  3 29  1  0
  4  5  1  0
  4 35  1  0
  5  6  2  0
  5 36  1  0
  6  7  1  0
  6 28  1  0
  7  8  1  0
  7 37  1  0
  8  9  2  0
  8 16  1  0
  9 10  1  0
 10 11  2  0
 10 17  1  0
 11 12  1  0
 11 38  1  0
 12 13  1  0
 12 16  1  0
 13 14  2  0
 13 39  1  0
 14 15  1  0
 14 40  1  0
 15 16  2  0
 17 18  2  0
 17 27  1  0
 18 19  1  0
 18 41  1  0
 19 20  2  0
 19 42  1  0
 20 21  1  0
 20 26  1  0
 21 22  1  0
 21 43  1  0
 22 23  2  0
 22 24  1  0
 24 25  1  0
 24 44  1  0
 24 45  1  0
 25 26  1  0
 26 27  2  0
 27 46  1  0
 28 29  2  0
 28 47  1  0
 29 30  1  0
 30 31  1  0
 31 48  1  0
 31 49  1  0
 31 50  1  0
M  END
>  <s_m_entry_id>  (1) 
1099

>  <IC50[nM]>  (1) 
33.4

>  <s_m_Source_Path>  (1) 
/projects/mai/users/kmzp800_harry/pmx_colab/docking_jobs/syk

>  <s_m_Source_File>  (1) 
tnks2_lig.sdf

>  <i_m_Source_File_Index>  (1) 
20

>  <s_m_job_name>  (1) 
glide-dock_SP_syk_mcs

>  <r_i_docking_score>  (1) 
-6.87108335027565

>  <r_i_glide_gscore>  (1) 
-6.87108335027565

>  <r_i_glide_emodel>  (1) 
-49.1772700536712

>  <index_string>  (1) 
18:0:0

$$$$
