9:0:0
     RDKit          3D

 54 57  0  0  1  0  0  0  0  0999 V2000
   32.7220   34.4890   22.0710 N   0  0  0  0  0  0  0  0  0  0  0  0
   33.0710   34.4460   20.7440 C   0  0  0  0  0  0  0  0  0  0  0  0
   33.0930   33.3440   20.1270 O   0  0  0  0  0  0  0  0  0  0  0  0
   33.4040   35.6210   20.0540 C   0  0  0  0  0  0  0  0  0  0  0  0
   33.3380   36.8460   20.7260 C   0  0  0  0  0  0  0  0  0  0  0  0
   32.9590   36.8830   22.0610 C   0  0  0  0  0  0  0  0  0  0  0  0
   32.8760   38.0870   22.7530 C   0  0  0  0  0  0  0  0  0  0  0  0
   32.4900   38.0910   24.0550 N   0  0  0  0  0  0  0  0  0  0  0  0
   32.1810   36.9320   24.6990 C   0  0  0  0  0  0  0  0  0  0  0  0
   31.7740   36.9460   26.0690 N   0  0  0  0  0  0  0  0  0  0  0  0
   32.2570   35.7470   24.0370 N   0  0  0  0  0  0  0  0  0  0  0  0
   32.6440   35.6890   22.7320 C   0  0  0  0  0  0  0  0  0  0  0  0
   31.7060   38.1670   26.8630 C   0  0  0  0  0  0  0  0  0  0  0  0
   33.1040   38.5340   27.3860 C   0  0  0  0  0  0  0  0  0  0  0  0
   33.4460   37.8210   28.7040 C   0  0  0  0  0  0  0  0  0  0  0  0
   32.5660   36.7530   28.9510 O   0  0  0  0  0  0  0  0  0  0  0  0
   31.3260   37.3410   29.2500 C   0  0  0  0  0  0  0  0  0  0  0  0
   30.6960   37.9790   28.0010 C   0  0  0  0  0  0  0  0  0  0  0  0
   32.4000   33.2440   22.7790 C   0  0  0  0  0  0  0  0  0  0  0  0
   30.9490   32.8060   22.5640 C   0  0  0  0  0  0  0  0  0  0  0  0
   30.1380   33.2330   23.6180 O   0  0  0  0  0  0  0  0  0  0  0  0
   30.8360   31.3000   22.3900 C   0  0  0  0  0  0  0  0  0  0  0  0
   31.5980   30.8910   21.2950 O   0  0  0  0  0  0  0  0  0  0  0  0
   33.7530   35.5500   18.6960 O   0  0  0  0  0  0  0  0  0  0  0  0
   35.0580   35.6520   18.1940 C   0  0  0  0  0  0  0  0  0  0  0  0
   36.1060   35.8620   19.0970 C   0  0  0  0  0  0  0  0  0  0  0  0
   37.4210   35.9780   18.6400 C   0  0  0  0  0  0  0  0  0  0  0  0
   37.6960   35.8930   17.2730 C   0  0  0  0  0  0  0  0  0  0  0  0
   38.9720   36.0060   16.8320 F   0  0  0  0  0  0  0  0  0  0  0  0
   36.6540   35.7100   16.3620 C   0  0  0  0  0  0  0  0  0  0  0  0
   35.3360   35.5910   16.8130 C   0  0  0  0  0  0  0  0  0  0  0  0
   34.3390   35.4750   15.9040 F   0  0  0  0  0  0  0  0  0  0  0  0
   33.5860   37.7784   20.1976 H   0  0  0  0  0  0  0  0  0  0  0  0
   33.1222   39.0324   22.2474 H   0  0  0  0  0  0  0  0  0  0  0  0
   31.5173   36.0539   26.5152 H   0  0  0  0  0  0  0  0  0  0  0  0
   31.3608   39.0042   26.2386 H   0  0  0  0  0  0  0  0  0  0  0  0
   33.8495   38.2510   26.6282 H   0  0  0  0  0  0  0  0  0  0  0  0
   33.1145   39.6168   27.5796 H   0  0  0  0  0  0  0  0  0  0  0  0
   34.4733   37.4323   28.6449 H   0  0  0  0  0  0  0  0  0  0  0  0
   33.3506   38.5462   29.5256 H   0  0  0  0  0  0  0  0  0  0  0  0
   30.6470   36.5679   29.6389 H   0  0  0  0  0  0  0  0  0  0  0  0
   31.4869   38.1297   29.9997 H   0  0  0  0  0  0  0  0  0  0  0  0
   30.2874   38.9626   28.2757 H   0  0  0  0  0  0  0  0  0  0  0  0
   29.9095   37.2999   27.6402 H   0  0  0  0  0  0  0  0  0  0  0  0
   33.0664   32.4484   22.4145 H   0  0  0  0  0  0  0  0  0  0  0  0
   32.5384   33.4259   23.8550 H   0  0  0  0  0  0  0  0  0  0  0  0
   30.6004   33.2807   21.6349 H   0  0  0  0  0  0  0  0  0  0  0  0
   30.5696   33.0057   24.4795 H   0  0  0  0  0  0  0  0  0  0  0  0
   31.2035   30.7992   23.2978 H   0  0  0  0  0  0  0  0  0  0  0  0
   29.7828   31.0327   22.2190 H   0  0  0  0  0  0  0  0  0  0  0  0
   32.4236   30.4479   21.6145 H   0  0  0  0  0  0  0  0  0  0  0  0
   35.8931   35.9362   20.1736 H   0  0  0  0  0  0  0  0  0  0  0  0
   38.2402   36.1363   19.3568 H   0  0  0  0  0  0  0  0  0  0  0  0
   36.8709   35.6592   15.2848 H   0  0  0  0  0  0  0  0  0  0  0  0
  1 12  1  0
  1 19  1  0
  1  2  1  0
  2  3  2  0
  2  4  1  0
  4  5  2  0
  4 24  1  0
  5  6  1  0
  5 33  1  0
  6 12  2  0
  6  7  1  0
  7  8  2  0
  7 34  1  0
  8  9  1  0
  9 10  1  0
  9 11  2  0
 10 13  1  0
 10 35  1  0
 11 12  1  0
 13 14  1  0
 13 18  1  0
 13 36  1  0
 14 15  1  0
 14 37  1  0
 14 38  1  0
 15 16  1  0
 15 39  1  0
 15 40  1  0
 16 17  1  0
 17 18  1  0
 17 41  1  0
 17 42  1  0
 18 43  1  0
 18 44  1  0
 19 20  1  0
 19 45  1  0
 19 46  1  0
 20 22  1  0
 20 21  1  0
 20 47  1  0
 21 48  1  0
 22 23  1  0
 22 49  1  0
 22 50  1  0
 23 51  1  0
 24 25  1  0
 25 26  2  0
 25 31  1  0
 26 27  1  0
 26 52  1  0
 27 28  2  0
 27 53  1  0
 28 29  1  0
 28 30  1  0
 30 31  2  0
 30 54  1  0
 31 32  1  0
M  END
>  <s_m_entry_id>  (1) 
1364

>  <MODEL>  (1) 
1

>  <REMARK>  (1) 
 VINA RESULT:    -7.998      0.000      0.000
 INTER + INTRA:         -12.435
 INTER:                 -11.271
 INTRA:                  -1.164
 UNBOUND:                -1.164
  Name = /scratch/kmzp800/tmp8kuach49/tmp30bg7l33.pdb
  8 active torsions:
  status: ('A' for Active; 'I' for Inactive)
    1  A    between atoms: O1_1  and  C1_2
    2  A    between atoms: C1_2  and  C2_3
    3  A    between atoms: C2_3  and  O2_4
    4  A    between atoms: C2_3  and  C3_5
    5  A    between atoms: C3_5  and  N1_6
    6  A    between atoms: C5_9  and  O4_10
    7  A    between atoms: O4_10  and  C6_11
    8  A    between atoms: N3_24  and  C16_25
                            x       y       z     vdW  Elec       q    Type
                         _______ _______ _______ _____ _____    ______ ____

>  <TORSDO>  (1) 
F 8

>  <grid_id>  (1) 
p38-prepared

>  <grid_path>  (1) 
/projects/mai/users/kmzp800_harry/pmx_colab/docking_jobs/p38/vina_docking/input_files/p38_vina.pdbqt

>  <grid_filename>  (1) 
p38_vina.pdbqt

>  <docking_score>  (1) 
-7.998

>  <compound_name>  (1) 
lig_p38a_2s

>  <index_string>  (1) 
9:0:0

>  <s_m_Source_Path>  (1) 
/projects/mai/users/kmzp800_harry/pmx_colab/docking_jobs/p38

>  <s_m_Source_File>  (1) 
p38_confs_vina_naive.sdf

>  <i_m_Source_File_Index>  (1) 
11

$$$$
