9:0:0
     RDKit          3D

 54 57  0  0  1  0  0  0  0  0999 V2000
   32.7423   34.6633   14.3937 F   0  0  0  0  0  0  0  0  0  0  0  0
   33.4605   34.9058   15.5152 C   0  0  0  0  0  0  0  0  0  0  0  0
   32.8140   35.1493   16.7251 C   0  0  0  0  0  0  0  0  0  0  0  0
   33.5416   35.2247   17.9220 C   0  0  0  0  0  0  0  0  0  0  0  0
   34.9547   35.2300   17.8868 C   0  0  0  0  0  0  0  0  0  0  0  0
   35.6104   35.1495   16.6449 C   0  0  0  0  0  0  0  0  0  0  0  0
   36.9568   35.2067   16.5669 F   0  0  0  0  0  0  0  0  0  0  0  0
   34.8554   34.9055   15.4914 C   0  0  0  0  0  0  0  0  0  0  0  0
   35.7088   35.2361   19.0336 O   0  0  0  0  0  0  0  0  0  0  0  0
   35.1894   35.8250   20.1392 C   0  0  0  0  0  0  0  0  0  0  0  0
   35.2641   37.1578   20.2629 C   0  0  0  0  0  0  0  0  0  0  0  0
   34.5917   34.9841   21.1757 C   0  0  0  0  0  0  0  0  0  0  0  0
   34.4746   33.7740   21.0087 O   0  0  0  0  0  0  0  0  0  0  0  0
   34.1685   35.6090   22.3161 N   0  0  0  0  0  0  0  0  0  0  0  0
   33.4666   34.8012   23.3398 C   0  0  0  0  0  0  0  0  0  0  0  0
   31.9280   34.7771   23.1446 C   0  0  0  0  0  0  0  0  0  0  0  0
   31.3618   34.5559   24.4282 O   0  0  0  0  0  0  0  0  0  0  0  0
   31.3864   33.6589   22.2175 C   0  0  0  0  0  0  0  0  0  0  0  0
   31.5756   33.9498   20.8456 O   0  0  0  0  0  0  0  0  0  0  0  0
   34.2828   37.0324   22.5135 C   0  0  0  0  0  0  0  0  0  0  0  0
   34.8081   37.8247   21.4711 C   0  0  0  0  0  0  0  0  0  0  0  0
   33.8851   37.6366   23.6535 N   0  0  0  0  0  0  0  0  0  0  0  0
   33.9959   38.9617   23.7532 C   0  0  0  0  0  0  0  0  0  0  0  0
   34.4629   39.7875   22.8188 N   0  0  0  0  0  0  0  0  0  0  0  0
   34.8672   39.2141   21.6628 C   0  0  0  0  0  0  0  0  0  0  0  0
   33.5813   39.5493   24.9274 N   0  0  0  0  0  0  0  0  0  0  0  0
   33.0382   38.8648   26.0927 C   0  0  0  0  0  0  0  0  0  0  0  0
   33.0246   39.7926   27.3117 C   0  0  0  0  0  0  0  0  0  0  0  0
   32.4063   39.0871   28.5264 C   0  0  0  0  0  0  0  0  0  0  0  0
   31.1007   38.6257   28.2138 O   0  0  0  0  0  0  0  0  0  0  0  0
   31.0719   37.6902   27.1411 C   0  0  0  0  0  0  0  0  0  0  0  0
   31.6092   38.3487   25.8578 C   0  0  0  0  0  0  0  0  0  0  0  0
   31.5649   35.7478   22.8115 H   0  0  0  0  0  0  0  0  0  0  0  0
   31.7334   35.1570   16.7644 H   0  0  0  0  0  0  0  0  0  0  0  0
   32.9803   35.2922   18.8438 H   0  0  0  0  0  0  0  0  0  0  0  0
   35.3518   34.7032   14.5645 H   0  0  0  0  0  0  0  0  0  0  0  0
   35.7264   37.7554   19.4872 H   0  0  0  0  0  0  0  0  0  0  0  0
   33.8480   33.7771   23.3915 H   0  0  0  0  0  0  0  0  0  0  0  0
   33.7018   35.2114   24.3224 H   0  0  0  0  0  0  0  0  0  0  0  0
   30.4222   34.6551   24.3676 H   0  0  0  0  0  0  0  0  0  0  0  0
   31.8509   32.6985   22.4553 H   0  0  0  0  0  0  0  0  0  0  0  0
   30.3131   33.5262   22.3769 H   0  0  0  0  0  0  0  0  0  0  0  0
   31.1645   33.2612   20.3186 H   0  0  0  0  0  0  0  0  0  0  0  0
   35.2539   39.8757   20.9037 H   0  0  0  0  0  0  0  0  0  0  0  0
   33.7506   40.5467   25.0223 H   0  0  0  0  0  0  0  0  0  0  0  0
   33.6905   38.0199   26.3012 H   0  0  0  0  0  0  0  0  0  0  0  0
   34.0449   40.1110   27.5572 H   0  0  0  0  0  0  0  0  0  0  0  0
   32.4581   40.7011   27.0945 H   0  0  0  0  0  0  0  0  0  0  0  0
   33.0298   38.2462   28.8470 H   0  0  0  0  0  0  0  0  0  0  0  0
   32.3489   39.7794   29.3659 H   0  0  0  0  0  0  0  0  0  0  0  0
   31.6589   36.8101   27.4064 H   0  0  0  0  0  0  0  0  0  0  0  0
   30.0449   37.3516   27.0013 H   0  0  0  0  0  0  0  0  0  0  0  0
   30.9461   39.1591   25.5616 H   0  0  0  0  0  0  0  0  0  0  0  0
   31.5889   37.6173   25.0478 H   0  0  0  0  0  0  0  0  0  0  0  0
  1  2  1  0
  2  8  2  0
  2  3  1  0
  3  4  2  0
  3 34  1  0
  4  5  1  0
  4 35  1  0
  5  6  2  0
  5  9  1  0
  6  7  1  0
  6  8  1  0
  8 36  1  0
  9 10  1  0
 10 11  2  0
 10 12  1  0
 11 21  1  0
 11 37  1  0
 12 13  2  0
 12 14  1  0
 14 15  1  0
 14 20  1  0
 15 16  1  0
 15 38  1  0
 15 39  1  0
 16 33  1  0
 16 17  1  0
 16 18  1  0
 17 40  1  0
 18 19  1  0
 18 41  1  0
 18 42  1  0
 19 43  1  0
 20 21  2  0
 20 22  1  0
 21 25  1  0
 22 23  2  0
 23 24  1  0
 23 26  1  0
 24 25  2  0
 25 44  1  0
 26 27  1  0
 26 45  1  0
 27 32  1  0
 27 28  1  0
 27 46  1  0
 28 29  1  0
 28 47  1  0
 28 48  1  0
 29 30  1  0
 29 49  1  0
 29 50  1  0
 30 31  1  0
 31 32  1  0
 31 51  1  0
 31 52  1  0
 32 53  1  0
 32 54  1  0
M  END
>  <s_m_entry_id>  (1) 
266

>  <i_f3d_flags>  (1) 
0

>  <r_lp_tautomer_probability>  (1) 
1

>  <r_epik_Ionization_Penalty>  (1) 
  0.0000

>  <r_epik_State_Penalty>  (1) 
  0.0000

>  <i_epik_Tot_Q>  (1) 
0

>  <s_m_job_name>  (1) 
glide-dock_SP_p38_core_cons_top_1

>  <r_i_docking_score>  (1) 
-6.70321684817506

>  <r_i_glide_gscore>  (1) 
-6.70321684817506

>  <r_i_glide_emodel>  (1) 
-54.6118315765622

>  <index_string>  (1) 
9:0:0

$$$$
