6:0:0
     RDKit          3D

 48 51  0  0  1  0  0  0  0  0999 V2000
   32.7496   34.6845   14.3692 F   0  0  0  0  0  0  0  0  0  0  0  0
   33.4639   34.9080   15.4996 C   0  0  0  0  0  0  0  0  0  0  0  0
   34.8636   34.9112   15.4889 C   0  0  0  0  0  0  0  0  0  0  0  0
   35.6069   35.1493   16.6503 C   0  0  0  0  0  0  0  0  0  0  0  0
   36.9568   35.2019   16.5776 F   0  0  0  0  0  0  0  0  0  0  0  0
   34.9459   35.2355   17.8905 C   0  0  0  0  0  0  0  0  0  0  0  0
   33.5328   35.2407   17.9101 C   0  0  0  0  0  0  0  0  0  0  0  0
   32.8133   35.1494   16.7079 C   0  0  0  0  0  0  0  0  0  0  0  0
   35.7008   35.2350   19.0345 O   0  0  0  0  0  0  0  0  0  0  0  0
   35.1782   35.8269   20.1435 C   0  0  0  0  0  0  0  0  0  0  0  0
   35.2680   37.1599   20.2658 C   0  0  0  0  0  0  0  0  0  0  0  0
   34.5478   34.9960   21.1714 C   0  0  0  0  0  0  0  0  0  0  0  0
   34.3243   33.8035   20.9692 O   0  0  0  0  0  0  0  0  0  0  0  0
   34.2020   35.6189   22.3346 N   0  0  0  0  0  0  0  0  0  0  0  0
   33.6509   34.8168   23.4397 C   0  0  0  0  0  0  0  0  0  0  0  0
   34.2822   37.0396   22.5198 C   0  0  0  0  0  0  0  0  0  0  0  0
   34.7967   37.8285   21.4692 C   0  0  0  0  0  0  0  0  0  0  0  0
   33.8829   37.6386   23.6624 N   0  0  0  0  0  0  0  0  0  0  0  0
   33.9986   38.9617   23.7612 C   0  0  0  0  0  0  0  0  0  0  0  0
   34.4507   39.7903   22.8205 N   0  0  0  0  0  0  0  0  0  0  0  0
   34.8448   39.2209   21.6601 C   0  0  0  0  0  0  0  0  0  0  0  0
   33.6518   39.5500   24.9637 N   0  0  0  0  0  0  0  0  0  0  0  0
   33.3770   38.8266   26.2006 C   0  0  0  0  0  0  0  0  0  0  0  0
   34.6685   38.1944   26.7717 C   0  0  0  0  0  0  0  0  0  0  0  0
   34.4067   37.3053   27.9935 C   0  0  0  0  0  0  0  0  0  0  0  0
   32.6848   39.7656   27.2125 C   0  0  0  0  0  0  0  0  0  0  0  0
   32.2321   39.0491   28.4912 C   0  0  0  0  0  0  0  0  0  0  0  0
   33.6650   38.2909   29.3549 S   0  0  0  0  0  0  0  0  0  0  0  0
   33.1676   37.3754   30.3942 O   0  0  0  0  0  0  0  0  0  0  0  0
   34.6107   39.3651   29.6945 O   0  0  0  0  0  0  0  0  0  0  0  0
   35.3521   34.7301   14.5582 H   0  0  0  0  0  0  0  0  0  0  0  0
   32.9767   35.3059   18.8314 H   0  0  0  0  0  0  0  0  0  0  0  0
   31.7360   35.1502   16.7398 H   0  0  0  0  0  0  0  0  0  0  0  0
   35.7369   37.7594   19.4975 H   0  0  0  0  0  0  0  0  0  0  0  0
   32.5661   34.9240   23.4723 H   0  0  0  0  0  0  0  0  0  0  0  0
   33.8825   33.7509   23.3761 H   0  0  0  0  0  0  0  0  0  0  0  0
   34.0460   35.1461   24.4019 H   0  0  0  0  0  0  0  0  0  0  0  0
   35.2295   39.8773   20.8940 H   0  0  0  0  0  0  0  0  0  0  0  0
   33.7855   40.5520   25.0426 H   0  0  0  0  0  0  0  0  0  0  0  0
   32.6775   38.0265   25.9580 H   0  0  0  0  0  0  0  0  0  0  0  0
   35.1615   37.5861   26.0129 H   0  0  0  0  0  0  0  0  0  0  0  0
   35.3786   38.9796   27.0368 H   0  0  0  0  0  0  0  0  0  0  0  0
   33.7208   36.4953   27.7491 H   0  0  0  0  0  0  0  0  0  0  0  0
   35.3300   36.8578   28.3636 H   0  0  0  0  0  0  0  0  0  0  0  0
   33.3568   40.5806   27.4880 H   0  0  0  0  0  0  0  0  0  0  0  0
   31.8162   40.2324   26.7441 H   0  0  0  0  0  0  0  0  0  0  0  0
   31.5142   38.2613   28.2676 H   0  0  0  0  0  0  0  0  0  0  0  0
   31.7582   39.7429   29.1866 H   0  0  0  0  0  0  0  0  0  0  0  0
  1  2  1  0
  2  8  2  0
  2  3  1  0
  3  4  2  0
  3 31  1  0
  4  5  1  0
  4  6  1  0
  6  7  2  0
  6  9  1  0
  7  8  1  0
  7 32  1  0
  8 33  1  0
  9 10  1  0
 10 11  2  0
 10 12  1  0
 11 17  1  0
 11 34  1  0
 12 13  2  0
 12 14  1  0
 14 15  1  0
 14 16  1  0
 15 35  1  0
 15 36  1  0
 15 37  1  0
 16 17  2  0
 16 18  1  0
 17 21  1  0
 18 19  2  0
 19 20  1  0
 19 22  1  0
 20 21  2  0
 21 38  1  0
 22 23  1  0
 22 39  1  0
 23 24  1  0
 23 26  1  0
 23 40  1  0
 24 25  1  0
 24 41  1  0
 24 42  1  0
 25 28  1  0
 25 43  1  0
 25 44  1  0
 26 27  1  0
 26 45  1  0
 26 46  1  0
 27 28  1  0
 27 47  1  0
 27 48  1  0
 28 29  2  0
 28 30  2  0
M  END
>  <s_m_entry_id>  (1) 
280

>  <i_f3d_flags>  (1) 
0

>  <r_lp_tautomer_probability>  (1) 
1

>  <r_epik_Ionization_Penalty>  (1) 
  0.0000

>  <r_epik_State_Penalty>  (1) 
  0.0000

>  <i_epik_Tot_Q>  (1) 
0

>  <s_m_job_name>  (1) 
glide-dock_SP_p38_core_cons_top_1

>  <r_i_docking_score>  (1) 
-6.27963443991326

>  <r_i_glide_gscore>  (1) 
-6.27963443991326

>  <r_i_glide_emodel>  (1) 
-46.1158927341361

>  <index_string>  (1) 
6:0:0

$$$$
