33:0:0
     RDKit          3D

 52 57  0  0  1  0  0  0  0  0999 V2000
    1.8120   -1.4400   15.3980 N   0  0  0  0  0  0  0  0  0  0  0  0
    2.6860   -0.4610   14.8180 C   0  0  0  0  0  0  0  0  0  0  0  0
    2.2900    0.3350   13.7810 N   0  0  0  0  0  0  0  0  0  0  0  0
    3.1170    1.2730   13.2190 C   0  0  0  0  0  0  0  0  0  0  0  0
    4.4220    1.4200   13.7270 C   0  0  0  0  0  0  0  0  0  0  0  0
    4.7890    0.6190   14.7540 N   0  0  0  0  0  0  0  0  0  0  0  0
    5.9550    0.5560   15.4120 C   0  0  0  0  0  0  0  0  0  0  0  0
    5.8050   -0.4370   16.3770 C   0  0  0  0  0  0  0  0  0  0  0  0
    4.5590   -0.9720   16.3060 N   0  0  0  0  0  0  0  0  0  0  0  0
    3.9810   -0.2930   15.3000 C   0  0  0  0  0  0  0  0  0  0  0  0
    2.6360    2.1080   12.0990 C   0  0  0  0  0  0  0  0  0  0  0  0
    3.5460    2.6420   11.1500 C   0  0  0  0  0  0  0  0  0  0  0  0
    3.0970    3.4390   10.0800 C   0  0  0  0  0  0  0  0  0  0  0  0
    1.7300    3.6760    9.9960 C   0  0  0  0  0  0  0  0  0  0  0  0
    0.9850    4.3960    9.0910 C   0  0  0  0  0  0  0  0  0  0  0  0
   -0.3110    4.2940    9.4860 N   0  0  0  0  0  0  0  0  0  0  0  0
   -0.3990    3.5500   10.5850 N   0  0  0  0  0  0  0  0  0  0  0  0
    0.8470    3.1690   10.8990 C   0  0  0  0  0  0  0  0  0  0  0  0
    1.2540    2.3790   11.9690 C   0  0  0  0  0  0  0  0  0  0  0  0
   -2.1800   -2.3650   14.3030 C   0  0  0  0  0  0  0  0  0  0  0  0
   -1.6080   -1.1660   13.8690 C   0  0  0  0  0  0  0  0  0  0  0  0
   -0.2940   -0.8490   14.2220 C   0  0  0  0  0  0  0  0  0  0  0  0
    0.4610   -1.7290   15.0140 C   0  0  0  0  0  0  0  0  0  0  0  0
   -0.1190   -2.9270   15.4450 C   0  0  0  0  0  0  0  0  0  0  0  0
   -1.4340   -3.2450   15.0930 C   0  0  0  0  0  0  0  0  0  0  0  0
   -5.5810   -3.1900   13.3900 C   0  0  0  0  0  0  0  0  0  0  0  0
   -6.1530   -4.5910   13.4370 C   0  0  0  0  0  0  0  0  0  0  0  0
   -4.8340   -2.7900   14.6050 C   0  0  0  0  0  0  0  0  0  0  0  0
   -3.5220   -2.6900   13.9430 N   0  0  0  0  0  0  0  0  0  0  0  0
   -4.2570   -3.0890   12.7310 C   0  0  0  0  0  0  0  0  0  0  0  0
   -6.4790   -2.2140   12.9580 O   0  0  0  0  0  0  0  0  0  0  0  0
    2.1970   -1.9958   16.1750 H   0  0  0  0  0  0  0  0  0  0  0  0
    5.1181    2.1594   13.3042 H   0  0  0  0  0  0  0  0  0  0  0  0
    6.8511    1.1665   15.2269 H   0  0  0  0  0  0  0  0  0  0  0  0
    6.5825   -0.7432   17.0923 H   0  0  0  0  0  0  0  0  0  0  0  0
    4.6204    2.4295   11.2522 H   0  0  0  0  0  0  0  0  0  0  0  0
    3.7979    3.8563    9.3421 H   0  0  0  0  0  0  0  0  0  0  0  0
    1.3645    4.9469    8.2178 H   0  0  0  0  0  0  0  0  0  0  0  0
   -1.2604    3.3120   11.0971 H   0  0  0  0  0  0  0  0  0  0  0  0
    0.5257    1.9786   12.6896 H   0  0  0  0  0  0  0  0  0  0  0  0
   -2.1931   -0.4711   13.2487 H   0  0  0  0  0  0  0  0  0  0  0  0
    0.1519    0.0957   13.8774 H   0  0  0  0  0  0  0  0  0  0  0  0
    0.4639   -3.6237   16.0653 H   0  0  0  0  0  0  0  0  0  0  0  0
   -1.8823   -4.1885   15.4379 H   0  0  0  0  0  0  0  0  0  0  0  0
   -6.2794   -4.9005   14.4850 H   0  0  0  0  0  0  0  0  0  0  0  0
   -7.1291   -4.6057   12.9301 H   0  0  0  0  0  0  0  0  0  0  0  0
   -5.4661   -5.2847   12.9301 H   0  0  0  0  0  0  0  0  0  0  0  0
   -5.1766   -1.8304   15.0195 H   0  0  0  0  0  0  0  0  0  0  0  0
   -4.9077   -3.4489   15.4828 H   0  0  0  0  0  0  0  0  0  0  0  0
   -3.9113   -4.0487   12.3192 H   0  0  0  0  0  0  0  0  0  0  0  0
   -4.1786   -2.4309   11.8531 H   0  0  0  0  0  0  0  0  0  0  0  0
   -6.8872   -1.7704   13.7433 H   0  0  0  0  0  0  0  0  0  0  0  0
  1  2  1  0
  1 23  1  0
  2 10  1  0
  2  3  2  0
  3  4  1  0
  4  5  2  0
  4 11  1  0
  5  6  1  0
  6 10  1  0
  6  7  1  0
  7  8  2  0
  8  9  1  0
  9 10  2  0
 11 12  2  0
 11 19  1  0
 12 13  1  0
 13 14  2  0
 14 18  1  0
 14 15  1  0
 15 16  2  0
 16 17  1  0
 17 18  1  0
 18 19  2  0
 20 25  1  0
 20 21  2  0
 20 29  1  0
 21 22  1  0
 22 23  2  0
 23 24  1  0
 24 25  2  0
 26 27  1  0
 26 28  1  0
 26 30  1  0
 26 31  1  0
 28 29  1  0
 29 30  1  0
  1 32  1  0
  5 33  1  0
  7 34  1  0
  8 35  1  0
 12 36  1  0
 13 37  1  0
 15 38  1  0
 17 39  1  0
 19 40  1  0
 21 41  1  0
 22 42  1  0
 24 43  1  0
 25 44  1  0
 27 45  1  0
 27 46  1  0
 27 47  1  0
 28 48  1  0
 28 49  1  0
 30 50  1  0
 30 51  1  0
 31 52  1  0
M  END
>  <s_m_entry_id>  (1) 
34

>  <MODEL>  (1) 
1

>  <REMARK>  (1) 
 VINA RESULT:    -9.768      0.000      0.000
 INTER + INTRA:         -12.039
 INTER:                 -11.767
 INTRA:                  -0.273
 UNBOUND:                -0.273
  Name = /scratch/kmzp800/tmp2rsfja9d/tmpsbspk22w.pdb
  5 active torsions:
  status: ('A' for Active; 'I' for Inactive)
    1  A    between atoms: O1_1  and  C1_2
    2  A    between atoms: C1_2  and  C2_3
    3  A    between atoms: N1_5  and  C4_6
    4  A    between atoms: C7_9  and  N2_10
    5  A    between atoms: C9_13  and  C10_14
                            x       y       z     vdW  Elec       q    Type
                         _______ _______ _______ _____ _____    ______ ____

>  <TORSDO>  (1) 
F 4

>  <grid_id>  (1) 
syk-prepared

>  <grid_path>  (1) 
syk_vina.pdbqt

>  <grid_filename>  (1) 
syk_vina.pdbqt

>  <docking_score>  (1) 
-9.768

>  <compound_name>  (1) 
CHEMBL3265030_n

>  <index_string>  (1) 
33:0:0

>  <s_m_Source_Path>  (1) 
/projects/mai/users/kmzp800_harry/pmx_colab/docking_jobs/syk/vina_prep/output

>  <s_m_Source_File>  (1) 
ptp1b_docked_conformers.sdf

>  <i_m_Source_File_Index>  (1) 
34

$$$$
