12:0:0
     RDKit          3D

 50 54  0  0  1  0  0  0  0  0999 V2000
   -4.5878   -2.9595   15.8673 C   0  0  0  0  0  0  0  0  0  0  0  0
   -3.9635   -2.1056   14.9184 O   0  0  0  0  0  0  0  0  0  0  0  0
   -2.5897   -1.9854   14.9654 C   0  0  0  0  0  0  0  0  0  0  0  0
   -1.7604   -2.7968   15.7764 C   0  0  0  0  0  0  0  0  0  0  0  0
   -0.3720   -2.5837   15.8180 C   0  0  0  0  0  0  0  0  0  0  0  0
    0.2264   -1.5583   15.0644 C   0  0  0  0  0  0  0  0  0  0  0  0
    1.6085   -1.3735   15.2516 N   0  0  0  0  0  0  0  0  0  0  0  0
    2.5272   -0.4469   14.7287 C   0  0  0  0  0  0  0  0  0  0  0  0
    2.1869    0.3524   13.7502 N   0  0  0  0  0  0  0  0  0  0  0  0
    3.1084    1.2560   13.2689 C   0  0  0  0  0  0  0  0  0  0  0  0
    4.4314    1.2666   13.6583 C   0  0  0  0  0  0  0  0  0  0  0  0
    4.7572    0.4755   14.7136 N   0  0  0  0  0  0  0  0  0  0  0  0
    5.9039    0.3790   15.4780 C   0  0  0  0  0  0  0  0  0  0  0  0
    5.6022   -0.4971   16.4894 C   0  0  0  0  0  0  0  0  0  0  0  0
    4.3557   -1.0579   16.3238 N   0  0  0  0  0  0  0  0  0  0  0  0
    3.8256   -0.4135   15.2872 C   0  0  0  0  0  0  0  0  0  0  0  0
    2.5259    2.2697   12.3595 C   0  0  0  0  0  0  0  0  0  0  0  0
    3.2391    2.8004   11.2566 C   0  0  0  0  0  0  0  0  0  0  0  0
    2.6119    3.6734   10.3448 C   0  0  0  0  0  0  0  0  0  0  0  0
    1.2721    4.0436   10.5619 C   0  0  0  0  0  0  0  0  0  0  0  0
    0.5497    3.6019   11.6985 C   0  0  0  0  0  0  0  0  0  0  0  0
   -0.7403    4.2083   11.5935 C   0  0  0  0  0  0  0  0  0  0  0  0
   -0.8537    4.9070   10.4908 N   0  0  0  0  0  0  0  0  0  0  0  0
    0.3476    4.8053    9.8620 N   0  0  0  0  0  0  0  0  0  0  0  0
    0.4917    5.4339    8.5711 C   0  0  0  0  0  0  0  0  0  0  0  0
    1.2023    2.7246   12.5872 C   0  0  0  0  0  0  0  0  0  0  0  0
   -0.5975   -0.7809   14.2164 C   0  0  0  0  0  0  0  0  0  0  0  0
   -1.9998   -0.9836   14.1627 C   0  0  0  0  0  0  0  0  0  0  0  0
   -2.8492   -0.2235   13.3819 O   0  0  0  0  0  0  0  0  0  0  0  0
   -2.2742    0.6877   12.4543 C   0  0  0  0  0  0  0  0  0  0  0  0
   -5.6692   -2.8694   15.7733 H   0  0  0  0  0  0  0  0  0  0  0  0
   -4.3290   -4.0061   15.6958 H   0  0  0  0  0  0  0  0  0  0  0  0
   -4.3211   -2.6870   16.8905 H   0  0  0  0  0  0  0  0  0  0  0  0
   -2.1652   -3.5813   16.3997 H   0  0  0  0  0  0  0  0  0  0  0  0
    0.2307   -3.1993   16.4717 H   0  0  0  0  0  0  0  0  0  0  0  0
    2.0211   -1.9603   15.9662 H   0  0  0  0  0  0  0  0  0  0  0  0
    5.1731    1.9754   13.3066 H   0  0  0  0  0  0  0  0  0  0  0  0
    6.7644    0.9953   15.2667 H   0  0  0  0  0  0  0  0  0  0  0  0
    6.1320   -0.7532   17.3811 H   0  0  0  0  0  0  0  0  0  0  0  0
    4.2564    2.4855   11.0728 H   0  0  0  0  0  0  0  0  0  0  0  0
    3.1441    4.0351    9.4786 H   0  0  0  0  0  0  0  0  0  0  0  0
   -1.5809    4.1298   12.2671 H   0  0  0  0  0  0  0  0  0  0  0  0
   -0.0021    4.8003    7.8286 H   0  0  0  0  0  0  0  0  0  0  0  0
    0.0213    6.4163    8.5824 H   0  0  0  0  0  0  0  0  0  0  0  0
    1.5474    5.5545    8.3195 H   0  0  0  0  0  0  0  0  0  0  0  0
    0.6526    2.3706   13.4471 H   0  0  0  0  0  0  0  0  0  0  0  0
   -0.1694    0.0046   13.6241 H   0  0  0  0  0  0  0  0  0  0  0  0
   -3.0614    1.1310   11.8442 H   0  0  0  0  0  0  0  0  0  0  0  0
   -1.7585    1.5009   12.9672 H   0  0  0  0  0  0  0  0  0  0  0  0
   -1.5797    0.1858   11.7772 H   0  0  0  0  0  0  0  0  0  0  0  0
  1  2  1  0
  1 31  1  0
  1 32  1  0
  1 33  1  0
  2  3  1  0
  3  4  2  0
  3 28  1  0
  4  5  1  0
  4 34  1  0
  5  6  2  0
  5 35  1  0
  6  7  1  0
  6 27  1  0
  7  8  1  0
  7 36  1  0
  8  9  2  0
  8 16  1  0
  9 10  1  0
 10 11  2  0
 10 17  1  0
 11 12  1  0
 11 37  1  0
 12 13  1  0
 12 16  1  0
 13 14  2  0
 13 38  1  0
 14 15  1  0
 14 39  1  0
 15 16  2  0
 17 18  2  0
 17 26  1  0
 18 19  1  0
 18 40  1  0
 19 20  2  0
 19 41  1  0
 20 21  1  0
 20 24  1  0
 21 22  1  0
 21 26  2  0
 22 23  2  0
 22 42  1  0
 23 24  1  0
 24 25  1  0
 25 43  1  0
 25 44  1  0
 25 45  1  0
 26 46  1  0
 27 28  2  0
 27 47  1  0
 28 29  1  0
 29 30  1  0
 30 48  1  0
 30 49  1  0
 30 50  1  0
M  END
>  <s_m_entry_id>  (1) 
1000

>  <IC50[nM]>  (1) 
20.9

>  <s_m_Source_Path>  (1) 
/projects/mai/users/kmzp800_harry/pmx_colab/docking_jobs/syk

>  <s_m_Source_File>  (1) 
tnks2_lig.sdf

>  <i_m_Source_File_Index>  (1) 
13

>  <s_m_job_name>  (1) 
glide-dock_SP_tnks2_core_const

>  <r_i_docking_score>  (1) 
-7.25676943740521

>  <r_i_glide_gscore>  (1) 
-7.25676943740521

>  <r_i_glide_emodel>  (1) 
-35.391151333996

>  <index_string>  (1) 
12:0:0

$$$$
