21:0:0
     RDKit          3D

 29 30  0  0  1  0  0  0  0  0999 V2000
   42.3500   12.7470   15.8340 C   0  0  0  0  0  0  0  0  0  0  0  0
   43.4210   13.4960   16.8960 S   0  0  0  0  0  0  0  0  0  0  0  0
   43.4050   15.0080   16.1720 C   0  0  0  0  0  0  0  0  0  0  0  0
   42.5470   14.9650   15.0750 C   0  0  0  0  0  0  0  0  0  0  0  0
   41.9610   13.6900   14.8660 C   0  0  0  0  0  0  0  0  0  0  0  0
   40.9130   13.2470   13.3140 Br  0  0  0  0  0  0  0  0  0  0  0  0
   42.3530    9.0990   16.8440 C   0  0  0  0  0  0  0  0  0  0  0  0
   42.7300   10.4380   16.7000 C   0  0  0  0  0  0  0  0  0  0  0  0
   41.9420   11.3260   15.9510 C   0  0  0  0  0  0  0  0  0  0  0  0
   40.7600   10.8510   15.3650 C   0  0  0  0  0  0  0  0  0  0  0  0
   40.3810    9.5130   15.5060 C   0  0  0  0  0  0  0  0  0  0  0  0
   41.1780    8.6370   16.2460 C   0  0  0  0  0  0  0  0  0  0  0  0
   39.1830    9.0450   14.9010 N   0  0  0  0  0  0  0  0  0  0  0  0
   44.1670   16.1730   16.6490 C   0  0  0  0  0  0  0  0  0  0  0  0
   44.8920   16.8210   15.8510 O   0  0  0  0  0  0  0  0  0  0  0  0
   44.0970   16.5680   17.9800 O   0  0  0  0  0  0  0  0  0  0  0  0
   42.3370   16.1000   14.2780 O   0  0  0  0  0  0  0  0  0  0  0  0
   41.2060   16.9530   14.3840 C   0  0  0  0  0  0  0  0  0  0  0  0
   40.6750   17.2710   13.0280 C   0  0  0  0  0  0  0  0  0  0  0  0
   41.4670   17.4360   12.0640 O   0  0  0  0  0  0  0  0  0  0  0  0
   39.3040   17.3480   12.8210 O   0  0  0  0  0  0  0  0  0  0  0  0
   42.9812    8.4101   17.4277 H   0  0  0  0  0  0  0  0  0  0  0  0
   43.6526   10.7987   17.1781 H   0  0  0  0  0  0  0  0  0  0  0  0
   40.1242   11.5387   14.7881 H   0  0  0  0  0  0  0  0  0  0  0  0
   40.8808    7.5838   16.3580 H   0  0  0  0  0  0  0  0  0  0  0  0
   38.9045    8.0589   15.0054 H   0  0  0  0  0  0  0  0  0  0  0  0
   38.5934    9.6920   14.3582 H   0  0  0  0  0  0  0  0  0  0  0  0
   40.4244   16.4494   14.9718 H   0  0  0  0  0  0  0  0  0  0  0  0
   41.5052   17.8873   14.8815 H   0  0  0  0  0  0  0  0  0  0  0  0
  1  9  1  0
  1  2  1  0
  1  5  2  0
  2  3  1  0
  3 14  1  0
  3  4  2  0
  4  5  1  0
  4 17  1  0
  5  6  1  0
  7  8  2  0
  7 12  1  0
  7 22  1  0
  8  9  1  0
  8 23  1  0
  9 10  2  0
 10 11  1  0
 10 24  1  0
 11 12  2  0
 11 13  1  0
 12 25  1  0
 13 26  1  0
 13 27  1  0
 14 16  1  0
 14 15  2  0
 17 18  1  0
 18 19  1  0
 18 28  1  0
 18 29  1  0
 19 20  2  0
 19 21  1  0
M  CHG  2  16  -1  21  -1
M  END
>  <s_m_entry_id>  (1) 
1239

>  <MODEL>  (1) 
2

>  <REMARK>  (1) 
 VINA RESULT:    -6.440      2.164      2.600
 INTER + INTRA:          -9.226
 INTER:                  -9.157
 INTRA:                  -0.069
 UNBOUND:                -0.715
  Name = /scratch/kmzp800/tmps96yr451/tmpe2me2gxm.pdb
  6 active torsions:
  status: ('A' for Active; 'I' for Inactive)
    1  A    between atoms: C3_3  and  C4_4
    2  A    between atoms: C5_6  and  C6_7
    3  A    between atoms: C7_10  and  O3_11
    4  A    between atoms: O3_11  and  C8_12
    5  A    between atoms: C8_12  and  C9_13
    6  A    between atoms: C12_19  and  N1_20
                            x       y       z     vdW  Elec       q    Type
                         _______ _______ _______ _____ _____    ______ ____

>  <TORSDO>  (1) 
F 6

>  <grid_id>  (1) 
ptp1b-prepared

>  <grid_path>  (1) 
ptp1b_vina.pdbqt

>  <grid_filename>  (1) 
ptp1b_vina.pdbqt

>  <docking_score>  (1) 
-6.44

>  <compound_name>  (1) 
lig_23466

>  <index_string>  (1) 
21:0:0

>  <s_m_Source_Path>  (1) 
/projects/mai/users/kmzp800_harry/pmx_colab/docking_jobs/ptp1b

>  <s_m_Source_File>  (1) 
ptp1b_confs_vina_mcs.sdf

>  <i_m_Source_File_Index>  (1) 
23

$$$$
