27:0:0
     RDKit          3D

 62 67  0  0  1  0  0  0  0  0999 V2000
   -4.5901   -3.1629   15.3747 C   0  0  0  0  0  0  0  0  0  0  0  0
   -3.9536   -2.1445   14.6160 O   0  0  0  0  0  0  0  0  0  0  0  0
   -2.5893   -1.9893   14.7558 C   0  0  0  0  0  0  0  0  0  0  0  0
   -1.7765   -2.8460   15.5379 C   0  0  0  0  0  0  0  0  0  0  0  0
   -0.3978   -2.6039   15.6664 C   0  0  0  0  0  0  0  0  0  0  0  0
    0.2081   -1.5114   15.0179 C   0  0  0  0  0  0  0  0  0  0  0  0
    1.5815   -1.3217   15.2602 N   0  0  0  0  0  0  0  0  0  0  0  0
    2.5265   -0.4271   14.7288 C   0  0  0  0  0  0  0  0  0  0  0  0
    2.2086    0.3840   13.7588 N   0  0  0  0  0  0  0  0  0  0  0  0
    3.1215    1.2730   13.2498 C   0  0  0  0  0  0  0  0  0  0  0  0
    4.4196    1.3242   13.7184 C   0  0  0  0  0  0  0  0  0  0  0  0
    4.7617    0.4869   14.7302 N   0  0  0  0  0  0  0  0  0  0  0  0
    5.9073    0.3858   15.4921 C   0  0  0  0  0  0  0  0  0  0  0  0
    5.6029   -0.4939   16.4977 C   0  0  0  0  0  0  0  0  0  0  0  0
    4.3638   -1.0698   16.3206 N   0  0  0  0  0  0  0  0  0  0  0  0
    3.8300   -0.4194   15.2908 C   0  0  0  0  0  0  0  0  0  0  0  0
    2.6640    2.2519   12.2284 C   0  0  0  0  0  0  0  0  0  0  0  0
    3.5839    2.7793   11.2862 C   0  0  0  0  0  0  0  0  0  0  0  0
    3.1787    3.6752   10.2829 C   0  0  0  0  0  0  0  0  0  0  0  0
    1.8358    4.0733   10.2052 C   0  0  0  0  0  0  0  0  0  0  0  0
    0.9008    3.5992   11.1476 C   0  0  0  0  0  0  0  0  0  0  0  0
    1.3217    2.7022   12.1619 C   0  0  0  0  0  0  0  0  0  0  0  0
   -0.5400    3.9782   10.9912 C   0  0  0  0  0  0  0  0  0  0  0  0
   -1.0484    3.9777    9.8701 O   0  0  0  0  0  0  0  0  0  0  0  0
   -1.1668    4.3443   12.1241 N   0  0  0  0  0  0  0  0  0  0  0  0
   -2.5012    4.8148   12.2737 C   0  0  0  0  0  0  0  0  0  0  0  0
   -2.7953    5.5838   13.4169 C   0  0  0  0  0  0  0  0  0  0  0  0
   -4.0983    6.0686   13.6336 C   0  0  0  0  0  0  0  0  0  0  0  0
   -5.1291    5.8361   12.6998 C   0  0  0  0  0  0  0  0  0  0  0  0
   -4.8360    5.0450   11.5674 C   0  0  0  0  0  0  0  0  0  0  0  0
   -3.5429    4.5280   11.3586 C   0  0  0  0  0  0  0  0  0  0  0  0
   -6.4739    6.4049   12.9103 C   0  0  0  0  0  0  0  0  0  0  0  0
   -7.5958    5.7394   12.6087 N   0  0  0  0  0  0  0  0  0  0  0  0
   -8.5531    6.6161   12.9517 N   0  0  0  0  0  0  0  0  0  0  0  0
   -7.9958    7.7459   13.4190 N   0  0  0  0  0  0  0  0  0  0  0  0
   -6.6586    7.6347   13.4087 N   0  0  0  0  0  0  0  0  0  0  0  0
   -0.6015   -0.6708   14.2169 C   0  0  0  0  0  0  0  0  0  0  0  0
   -1.9941   -0.9011   14.0809 C   0  0  0  0  0  0  0  0  0  0  0  0
   -2.8316   -0.0953   13.3348 O   0  0  0  0  0  0  0  0  0  0  0  0
   -2.2478    0.8924   12.4964 C   0  0  0  0  0  0  0  0  0  0  0  0
   -5.6645   -3.1263   15.1961 H   0  0  0  0  0  0  0  0  0  0  0  0
   -4.2414   -4.1540   15.0822 H   0  0  0  0  0  0  0  0  0  0  0  0
   -4.4297   -3.0241   16.4449 H   0  0  0  0  0  0  0  0  0  0  0  0
   -2.1867   -3.6901   16.0717 H   0  0  0  0  0  0  0  0  0  0  0  0
    0.1926   -3.2608   16.2903 H   0  0  0  0  0  0  0  0  0  0  0  0
    1.9765   -1.9285   15.9679 H   0  0  0  0  0  0  0  0  0  0  0  0
    5.1701    2.0358   13.3936 H   0  0  0  0  0  0  0  0  0  0  0  0
    6.7580    1.0205   15.2972 H   0  0  0  0  0  0  0  0  0  0  0  0
    6.1308   -0.7279   17.3967 H   0  0  0  0  0  0  0  0  0  0  0  0
    4.6170    2.4667   11.2960 H   0  0  0  0  0  0  0  0  0  0  0  0
    3.8943    4.0414    9.5617 H   0  0  0  0  0  0  0  0  0  0  0  0
    1.5246    4.7429    9.4157 H   0  0  0  0  0  0  0  0  0  0  0  0
    0.6027    2.3191   12.8706 H   0  0  0  0  0  0  0  0  0  0  0  0
   -0.5839    4.3975   12.9468 H   0  0  0  0  0  0  0  0  0  0  0  0
   -2.0240    5.7970   14.1437 H   0  0  0  0  0  0  0  0  0  0  0  0
   -4.3074    6.6468   14.5222 H   0  0  0  0  0  0  0  0  0  0  0  0
   -5.6117    4.8381   10.8447 H   0  0  0  0  0  0  0  0  0  0  0  0
   -3.3765    3.9201   10.4829 H   0  0  0  0  0  0  0  0  0  0  0  0
   -0.1707    0.1817   13.7273 H   0  0  0  0  0  0  0  0  0  0  0  0
   -3.0250    1.3556   11.8889 H   0  0  0  0  0  0  0  0  0  0  0  0
   -1.7794    1.6798   13.0870 H   0  0  0  0  0  0  0  0  0  0  0  0
   -1.5133    0.4621   11.8134 H   0  0  0  0  0  0  0  0  0  0  0  0
  1  2  1  0
  1 41  1  0
  1 42  1  0
  1 43  1  0
  2  3  1  0
  3  4  2  0
  3 38  1  0
  4  5  1  0
  4 44  1  0
  5  6  2  0
  5 45  1  0
  6  7  1  0
  6 37  1  0
  7  8  1  0
  7 46  1  0
  8  9  2  0
  8 16  1  0
  9 10  1  0
 10 11  2  0
 10 17  1  0
 11 12  1  0
 11 47  1  0
 12 13  1  0
 12 16  1  0
 13 14  2  0
 13 48  1  0
 14 15  1  0
 14 49  1  0
 15 16  2  0
 17 18  2  0
 17 22  1  0
 18 19  1  0
 18 50  1  0
 19 20  2  0
 19 51  1  0
 20 21  1  0
 20 52  1  0
 21 22  2  0
 21 23  1  0
 22 53  1  0
 23 24  2  0
 23 25  1  0
 25 26  1  0
 25 54  1  0
 26 27  2  0
 26 31  1  0
 27 28  1  0
 27 55  1  0
 28 29  2  0
 28 56  1  0
 29 30  1  0
 29 32  1  0
 30 31  2  0
 30 57  1  0
 31 58  1  0
 32 36  2  0
 32 33  1  0
 33 34  1  0
 34 35  2  0
 35 36  1  0
 37 38  2  0
 37 59  1  0
 38 39  1  0
 39 40  1  0
 40 60  1  0
 40 61  1  0
 40 62  1  0
M  CHG  1  33  -1
M  END
>  <s_m_entry_id>  (1) 
1015

>  <IC50[nM]>  (1) 
1.5

>  <s_m_Source_Path>  (1) 
/projects/mai/users/kmzp800_harry/pmx_colab/docking_jobs/syk

>  <s_m_Source_File>  (1) 
tnks2_lig.sdf

>  <i_m_Source_File_Index>  (1) 
28

>  <s_m_job_name>  (1) 
glide-dock_SP_tnks2_core_const

>  <r_i_docking_score>  (1) 
-8.54954525670229

>  <r_i_glide_gscore>  (1) 
-8.54954525670229

>  <r_i_glide_emodel>  (1) 
-77.519155386274

>  <index_string>  (1) 
27:0:0

$$$$
