20:0:0
     RDKit          3D

 40 42  0  0  1  0  0  0  0  0999 V2000
  -14.4551  -14.6846  -27.6075 C   0  0  0  0  0  0  0  0  0  0  0  0
  -15.0354  -15.5600  -26.6585 C   0  0  0  0  0  0  0  0  0  0  0  0
  -14.5761  -13.2899  -27.4809 C   0  0  0  0  0  0  0  0  0  0  0  0
  -15.7619  -15.0021  -25.5872 C   0  0  0  0  0  0  0  0  0  0  0  0
  -14.8483  -16.9603  -26.7472 N   0  0  0  0  0  0  0  0  0  0  0  0
  -15.2917  -12.7523  -26.4040 C   0  0  0  0  0  0  0  0  0  0  0  0
  -15.9027  -13.6008  -25.4609 C   0  0  0  0  0  0  0  0  0  0  0  0
  -16.3557  -15.9379  -24.5845 C   0  0  0  0  0  0  0  0  0  0  0  0
  -16.1252  -17.2408  -24.8109 N   0  0  0  0  0  0  0  0  0  0  0  0
  -16.9849  -15.5731  -23.6086 O   0  0  0  0  0  0  0  0  0  0  0  0
  -15.3672  -17.7570  -25.8545 C   0  0  0  0  0  0  0  0  0  0  0  0
  -15.2007  -19.2429  -25.9383 C   0  0  0  0  0  0  0  0  0  0  0  0
  -14.7627  -19.8354  -27.1410 C   0  0  0  0  0  0  0  0  0  0  0  0
  -14.5526  -21.2084  -27.2168 C   0  0  0  0  0  0  0  0  0  0  0  0
  -14.7856  -22.0561  -26.1168 C   0  0  0  0  0  0  0  0  0  0  0  0
  -15.2482  -21.4682  -24.9220 C   0  0  0  0  0  0  0  0  0  0  0  0
  -15.4506  -20.0796  -24.8266 C   0  0  0  0  0  0  0  0  0  0  0  0
  -14.4990  -23.5581  -26.2014 C   0  0  0  0  0  0  0  0  0  0  0  0
  -14.2519  -23.9950  -27.5186 O   0  0  0  0  0  0  0  0  0  0  0  0
  -15.7322  -24.3667  -25.7692 C   0  0  0  0  0  0  0  0  0  0  0  0
  -13.2142  -23.8862  -25.4137 C   0  0  0  0  0  0  0  0  0  0  0  0
  -13.6895  -15.2281  -28.7727 C   0  0  0  0  0  0  0  0  0  0  0  0
  -14.1260  -12.6249  -28.2054 H   0  0  0  0  0  0  0  0  0  0  0  0
  -15.3761  -11.6790  -26.3376 H   0  0  0  0  0  0  0  0  0  0  0  0
  -16.4570  -13.1754  -24.6376 H   0  0  0  0  0  0  0  0  0  0  0  0
  -16.5636  -17.8923  -24.1740 H   0  0  0  0  0  0  0  0  0  0  0  0
  -14.5886  -19.2244  -28.0134 H   0  0  0  0  0  0  0  0  0  0  0  0
  -14.1598  -21.5734  -28.1478 H   0  0  0  0  0  0  0  0  0  0  0  0
  -15.4254  -22.0814  -24.0475 H   0  0  0  0  0  0  0  0  0  0  0  0
  -15.7725  -19.6689  -23.8840 H   0  0  0  0  0  0  0  0  0  0  0  0
  -14.1033  -24.9270  -27.5002 H   0  0  0  0  0  0  0  0  0  0  0  0
  -15.9633  -24.2296  -24.7132 H   0  0  0  0  0  0  0  0  0  0  0  0
  -15.6142  -25.4357  -25.9388 H   0  0  0  0  0  0  0  0  0  0  0  0
  -16.6088  -24.0563  -26.3408 H   0  0  0  0  0  0  0  0  0  0  0  0
  -13.3455  -23.7362  -24.3405 H   0  0  0  0  0  0  0  0  0  0  0  0
  -12.8481  -24.9020  -25.5693 H   0  0  0  0  0  0  0  0  0  0  0  0
  -12.4046  -23.2294  -25.7327 H   0  0  0  0  0  0  0  0  0  0  0  0
  -13.5479  -14.4990  -29.5710 H   0  0  0  0  0  0  0  0  0  0  0  0
  -12.7271  -15.5728  -28.4328 H   0  0  0  0  0  0  0  0  0  0  0  0
  -14.2266  -16.0915  -29.1420 H   0  0  0  0  0  0  0  0  0  0  0  0
  1  2  2  0
  1  3  1  0
  1 22  1  0
  2  4  1  0
  2  5  1  0
  3  6  2  0
  3 23  1  0
  4  7  2  0
  4  8  1  0
  5 11  2  0
  6  7  1  0
  6 24  1  0
  7 25  1  0
  8  9  1  0
  8 10  2  0
  9 11  1  0
  9 26  1  0
 11 12  1  0
 12 13  2  0
 12 17  1  0
 13 14  1  0
 13 27  1  0
 14 15  2  0
 14 28  1  0
 15 16  1  0
 15 18  1  0
 16 17  2  0
 16 29  1  0
 17 30  1  0
 18 19  1  0
 18 20  1  0
 18 21  1  0
 19 31  1  0
 20 32  1  0
 20 33  1  0
 20 34  1  0
 21 35  1  0
 21 36  1  0
 21 37  1  0
 22 38  1  0
 22 39  1  0
 22 40  1  0
M  END
>  <s_m_entry_id>  (1) 
462

>  <Name>  (1) 
5i

>  <IC50[nM]>  (1) 
1.4

>  <s_m_Source_Path>  (1) 
/projects/mai/users/kmzp800_harry/pmx_colab/docking_jobs/tnks2

>  <s_m_Source_File>  (1) 
tnks2_lig.sdf

>  <i_m_Source_File_Index>  (1) 
21

>  <s_m_job_name>  (1) 
glide-dock_SP_tnks2_core_const

>  <r_i_docking_score>  (1) 
-10.4870374095484

>  <r_i_glide_gscore>  (1) 
-10.4870374095484

>  <r_i_glide_emodel>  (1) 
-53.1061642310276

>  <index_string>  (1) 
20:0:0

$$$$
