18:0:0
     RDKit          3D

 37 38  0  0  1  0  0  0  0  0999 V2000
   39.6049   17.8862   12.8925 O   0  0  0  0  0  0  0  0  0  0  0  0
   40.7563   17.3962   12.8940 C   0  0  0  0  0  0  0  0  0  0  0  0
   41.5693   17.4863   11.9428 O   0  0  0  0  0  0  0  0  0  0  0  0
   41.1843   16.6501   14.1615 C   0  0  0  0  0  0  0  0  0  0  0  0
   42.3534   15.8703   13.9313 O   0  0  0  0  0  0  0  0  0  0  0  0
   42.5686   14.9172   14.8659 C   0  0  0  0  0  0  0  0  0  0  0  0
   42.0416   13.6073   14.7902 C   0  0  0  0  0  0  0  0  0  0  0  0
   40.9838   13.1360   13.2940 Br  0  0  0  0  0  0  0  0  0  0  0  0
   42.3759   12.7621   15.8207 C   0  0  0  0  0  0  0  0  0  0  0  0
   43.3839   13.6219   16.9604 S   0  0  0  0  0  0  0  0  0  0  0  0
   43.3110   15.0902   16.0028 C   0  0  0  0  0  0  0  0  0  0  0  0
   43.9968   16.2861   16.4999 C   0  0  0  0  0  0  0  0  0  0  0  0
   44.3524   16.3606   17.6955 O   0  0  0  0  0  0  0  0  0  0  0  0
   44.1839   17.2202   15.6939 O   0  0  0  0  0  0  0  0  0  0  0  0
   42.0278   11.3590   16.0648 C   0  0  0  0  0  0  0  0  0  0  0  0
   42.9241   10.4785   16.7102 C   0  0  0  0  0  0  0  0  0  0  0  0
   42.5848    9.1241   16.9001 C   0  0  0  0  0  0  0  0  0  0  0  0
   41.3575    8.6197   16.4279 C   0  0  0  0  0  0  0  0  0  0  0  0
   40.4462    9.4856   15.7806 C   0  0  0  0  0  0  0  0  0  0  0  0
   40.7869   10.8439   15.6357 C   0  0  0  0  0  0  0  0  0  0  0  0
   39.2027    9.0868   15.2147 N   0  0  0  0  0  0  0  0  0  0  0  0
   38.5473    7.9165   15.2938 C   0  0  0  0  0  0  0  0  0  0  0  0
   38.9047    6.9524   15.9683 O   0  0  0  0  0  0  0  0  0  0  0  0
   37.2416    7.8415   14.4955 C   0  0  0  0  0  0  0  0  0  0  0  0
   37.1008    6.5232   13.7191 C   0  0  0  0  0  0  0  0  0  0  0  0
   40.3533   16.0232   14.4917 H   0  0  0  0  0  0  0  0  0  0  0  0
   41.3781   17.3770   14.9520 H   0  0  0  0  0  0  0  0  0  0  0  0
   43.8858   10.8314   17.0527 H   0  0  0  0  0  0  0  0  0  0  0  0
   43.2794    8.4597   17.3921 H   0  0  0  0  0  0  0  0  0  0  0  0
   41.1518    7.5685   16.5593 H   0  0  0  0  0  0  0  0  0  0  0  0
   40.0756   11.5024   15.1673 H   0  0  0  0  0  0  0  0  0  0  0  0
   38.7457    9.7990   14.6574 H   0  0  0  0  0  0  0  0  0  0  0  0
   37.1860    8.6784   13.7963 H   0  0  0  0  0  0  0  0  0  0  0  0
   36.4055    7.9529   15.1879 H   0  0  0  0  0  0  0  0  0  0  0  0
   36.1787    6.5116   13.1369 H   0  0  0  0  0  0  0  0  0  0  0  0
   37.0742    5.6670   14.3942 H   0  0  0  0  0  0  0  0  0  0  0  0
   37.9329    6.3802   13.0277 H   0  0  0  0  0  0  0  0  0  0  0  0
  1  2  2  0
  2  3  1  0
  2  4  1  0
  4  5  1  0
  4 26  1  0
  4 27  1  0
  5  6  1  0
  6 11  2  0
  6  7  1  0
  7  8  1  0
  7  9  2  0
  9 10  1  0
  9 15  1  0
 10 11  1  0
 11 12  1  0
 12 13  2  0
 12 14  1  0
 15 20  1  0
 15 16  2  0
 16 17  1  0
 16 28  1  0
 17 18  2  0
 17 29  1  0
 18 19  1  0
 18 30  1  0
 19 20  2  0
 19 21  1  0
 20 31  1  0
 21 22  1  0
 21 32  1  0
 22 23  2  0
 22 24  1  0
 24 25  1  0
 24 33  1  0
 24 34  1  0
 25 35  1  0
 25 36  1  0
 25 37  1  0
M  CHG  2   3  -1  14  -1
M  END
>  <s_m_entry_id>  (1) 
471

>  <i_f3d_flags>  (1) 
0

>  <r_epik_Ionization_Penalty>  (1) 
  0.0001

>  <r_epik_State_Penalty>  (1) 
  0.0000

>  <i_epik_Tot_Q>  (1) 
-2

>  <s_m_job_name>  (1) 
glide-dock_SP_ptp1b_no_cons

>  <r_lp_tautomer_probability>  (1) 
1

>  <r_i_docking_score>  (1) 
-8.06908151734002

>  <r_i_glide_gscore>  (1) 
-8.06908151734002

>  <r_i_glide_emodel>  (1) 
-104.729222017261

>  <index_string>  (1) 
18:0:0

$$$$
