2:0:0
     RDKit          3D

 53 55  0  0  1  0  0  0  0  0999 V2000
   39.2011   17.5418   12.6889 O   0  0  0  0  0  0  0  0  0  0  0  0
   40.3616   17.0680   12.6885 C   0  0  0  0  0  0  0  0  0  0  0  0
   41.2286   17.3057   11.8096 O   0  0  0  0  0  0  0  0  0  0  0  0
   40.7613   16.1469   13.8375 C   0  0  0  0  0  0  0  0  0  0  0  0
   42.1240   15.7439   13.7444 O   0  0  0  0  0  0  0  0  0  0  0  0
   42.5300   14.9268   14.7453 C   0  0  0  0  0  0  0  0  0  0  0  0
   42.1786   13.5618   14.8781 C   0  0  0  0  0  0  0  0  0  0  0  0
   41.1842   12.6861   13.5506 Br  0  0  0  0  0  0  0  0  0  0  0  0
   42.6193   12.9357   16.0081 C   0  0  0  0  0  0  0  0  0  0  0  0
   42.3498   11.5856   16.4755 C   0  0  0  0  0  0  0  0  0  0  0  0
   43.3831   10.7698   16.9778 C   0  0  0  0  0  0  0  0  0  0  0  0
   43.1032    9.4716   17.4114 C   0  0  0  0  0  0  0  0  0  0  0  0
   41.7983    8.9658   17.3557 C   0  0  0  0  0  0  0  0  0  0  0  0
   40.7509    9.7575   16.8519 C   0  0  0  0  0  0  0  0  0  0  0  0
   39.4476    9.2622   16.7815 N   0  0  0  0  0  0  0  0  0  0  0  0
   39.2398    7.8664   16.3827 C   0  0  0  0  0  0  0  0  0  0  0  0
   41.0361   11.0709   16.4258 C   0  0  0  0  0  0  0  0  0  0  0  0
   43.6464   14.0134   16.9147 S   0  0  0  0  0  0  0  0  0  0  0  0
   43.3636   15.3106   15.7644 C   0  0  0  0  0  0  0  0  0  0  0  0
   44.0166   16.5987   16.0525 C   0  0  0  0  0  0  0  0  0  0  0  0
   43.8381   17.5652   15.2668 O   0  0  0  0  0  0  0  0  0  0  0  0
   44.7517   16.6806   17.0593 O   0  0  0  0  0  0  0  0  0  0  0  0
   40.5623   16.6355   14.7945 H   0  0  0  0  0  0  0  0  0  0  0  0
   40.1365   15.2592   13.7960 H   0  0  0  0  0  0  0  0  0  0  0  0
   44.3860   11.1528   17.0361 H   0  0  0  0  0  0  0  0  0  0  0  0
   43.8941    8.8601   17.8222 H   0  0  0  0  0  0  0  0  0  0  0  0
   41.6018    7.9743   17.7200 H   0  0  0  0  0  0  0  0  0  0  0  0
   38.7379    9.9092   16.4757 H   0  0  0  0  0  0  0  0  0  0  0  0
   40.1240    7.2687   16.5682 H   0  0  0  0  0  0  0  0  0  0  0  0
   38.4684    7.4539   17.0232 H   0  0  0  0  0  0  0  0  0  0  0  0
   40.2455   11.6996   16.0519 H   0  0  0  0  0  0  0  0  0  0  0  0
   39.5347    8.3139   14.3203 H   0  0  0  0  0  0  0  0  0  0  0  0
   38.4420    6.0565   13.0449 C   0  0  0  0  0  0  0  0  0  0  0  0
   38.9444    6.2482   14.4805 C   0  0  0  0  0  0  0  0  0  0  0  0
   38.8326    7.7250   14.9151 C   0  0  0  0  0  0  0  0  0  0  0  0
   37.3993    8.2489   14.6951 C   0  0  0  0  0  0  0  0  0  0  0  0
   36.9304    8.0072   13.2501 C   0  0  0  0  0  0  0  0  0  0  0  0
   37.0841    6.5882   12.9081 N   0  0  0  0  0  0  0  0  0  0  0  0
   39.0869    6.6020   12.3529 H   0  0  0  0  0  0  0  0  0  0  0  0
   38.5178    5.0026   12.7853 H   0  0  0  0  0  0  0  0  0  0  0  0
   39.9818    5.9130   14.5652 H   0  0  0  0  0  0  0  0  0  0  0  0
   38.3555    5.6307   15.1628 H   0  0  0  0  0  0  0  0  0  0  0  0
   36.7188    7.7583   15.3922 H   0  0  0  0  0  0  0  0  0  0  0  0
   37.3459    9.3108   14.9236 H   0  0  0  0  0  0  0  0  0  0  0  0
   37.4910    8.6408   12.5654 H   0  0  0  0  0  0  0  0  0  0  0  0
   35.8902    8.3213   13.1575 H   0  0  0  0  0  0  0  0  0  0  0  0
   36.0100    5.8199   12.4492 C   0  0  0  0  0  0  0  0  0  0  0  0
   36.2418    4.5039   12.6390 O   0  0  0  0  0  0  0  0  0  0  0  0
   34.9829    6.2678   11.9308 O   0  0  0  0  0  0  0  0  0  0  0  0
   35.2516    3.5604   12.2703 C   0  0  0  0  0  0  0  0  0  0  0  0
   35.5965    2.5592   12.5302 H   0  0  0  0  0  0  0  0  0  0  0  0
   34.3184    3.7494   12.8040 H   0  0  0  0  0  0  0  0  0  0  0  0
   35.0695    3.5980   11.1947 H   0  0  0  0  0  0  0  0  0  0  0  0
  1  2  2  0
  2  3  1  0
  2  4  1  0
  4  5  1  0
  4 23  1  0
  4 24  1  0
  5  6  1  0
  6  7  1  0
  6 19  2  0
  7  8  1  0
  7  9  2  0
  9 10  1  0
  9 18  1  0
 10 11  2  0
 10 17  1  0
 11 12  1  0
 11 25  1  0
 12 13  2  0
 12 26  1  0
 13 14  1  0
 13 27  1  0
 14 15  1  0
 14 17  2  0
 15 16  1  0
 15 28  1  0
 16 29  1  0
 16 30  1  0
 16 35  1  0
 17 31  1  0
 18 19  1  0
 19 20  1  0
 20 21  2  0
 20 22  1  0
 32 35  1  0
 33 34  1  0
 33 38  1  0
 33 39  1  0
 33 40  1  0
 34 35  1  0
 34 41  1  0
 34 42  1  0
 35 36  1  0
 36 37  1  0
 36 43  1  0
 36 44  1  0
 37 38  1  0
 37 45  1  0
 37 46  1  0
 38 47  1  0
 47 48  1  0
 47 49  2  0
 48 50  1  0
 50 51  1  0
 50 52  1  0
 50 53  1  0
M  CHG  2   3  -1  22  -1
M  END
>  <s_m_entry_id>  (1) 
519

>  <s_m_Source_Path>  (1) 
/projects/mai/users/kmzp800_harry/pmx_colab/docking_jobs/ptp1b/glide-dock_SP_ptp1b_mcs_2

>  <s_m_Source_File>  (1) 
glide-dock_SP_ptp1b_mcs_2_pv.maegz

>  <i_m_Source_File_Index>  (1) 
4

>  <r_i_docking_score>  (1) 
-7.27448923955593

>  <r_i_glide_gscore>  (1) 
-7.27448923955593

>  <r_i_glide_emodel>  (1) 
-95.9387912767097

>  <index_string>  (1) 
2:0:0

$$$$
