1:0:0
     RDKit          3D

 41 43  0  0  1  0  0  0  0  0999 V2000
   41.3880   17.4863   11.8260 O   0  0  0  0  0  0  0  0  0  0  0  0
   40.5907   17.3586   12.7868 C   0  0  0  0  0  0  0  0  0  0  0  0
   39.4563   17.8863   12.8341 O   0  0  0  0  0  0  0  0  0  0  0  0
   41.0126   16.5198   14.0015 C   0  0  0  0  0  0  0  0  0  0  0  0
   42.1746   15.7417   13.7286 O   0  0  0  0  0  0  0  0  0  0  0  0
   42.5559   14.9366   14.7488 C   0  0  0  0  0  0  0  0  0  0  0  0
   42.1668   13.5924   14.9082 C   0  0  0  0  0  0  0  0  0  0  0  0
   40.9838   12.7862   13.6878 Br  0  0  0  0  0  0  0  0  0  0  0  0
   42.6319   12.9330   16.0110 C   0  0  0  0  0  0  0  0  0  0  0  0
   43.6672   13.9893   16.9101 S   0  0  0  0  0  0  0  0  0  0  0  0
   43.3811   15.3001   15.7774 C   0  0  0  0  0  0  0  0  0  0  0  0
   44.0063   16.5696   16.0988 C   0  0  0  0  0  0  0  0  0  0  0  0
   44.5840   16.6863   17.1975 O   0  0  0  0  0  0  0  0  0  0  0  0
   43.9346   17.5167   15.2915 O   0  0  0  0  0  0  0  0  0  0  0  0
   42.3686   11.5787   16.4863 C   0  0  0  0  0  0  0  0  0  0  0  0
   43.4089   10.7847   17.0030 C   0  0  0  0  0  0  0  0  0  0  0  0
   43.1629    9.4707   17.4363 C   0  0  0  0  0  0  0  0  0  0  0  0
   41.8754    8.9185   17.3324 C   0  0  0  0  0  0  0  0  0  0  0  0
   40.8081    9.7068   16.8378 C   0  0  0  0  0  0  0  0  0  0  0  0
   41.0703   11.0287   16.4318 C   0  0  0  0  0  0  0  0  0  0  0  0
   39.4910    9.3035   16.7633 O   0  0  0  0  0  0  0  0  0  0  0  0
   39.1614    7.9237   16.8812 C   0  0  0  0  0  0  0  0  0  0  0  0
   39.3752    7.1220   15.6060 C   0  0  0  0  0  0  0  0  0  0  0  0
   39.2504    5.7173   15.6470 C   0  0  0  0  0  0  0  0  0  0  0  0
   39.3837    4.9564   14.4695 C   0  0  0  0  0  0  0  0  0  0  0  0
   39.6554    5.5962   13.2454 C   0  0  0  0  0  0  0  0  0  0  0  0
   39.7846    6.9969   13.1979 C   0  0  0  0  0  0  0  0  0  0  0  0
   39.6362    7.7594   14.3724 C   0  0  0  0  0  0  0  0  0  0  0  0
   41.1950   17.1920   14.8413 H   0  0  0  0  0  0  0  0  0  0  0  0
   40.1841   15.8690   14.2845 H   0  0  0  0  0  0  0  0  0  0  0  0
   44.4102   11.1821   17.0577 H   0  0  0  0  0  0  0  0  0  0  0  0
   43.9735    8.8745   17.8277 H   0  0  0  0  0  0  0  0  0  0  0  0
   41.7267    7.9022   17.6624 H   0  0  0  0  0  0  0  0  0  0  0  0
   40.2453   11.6273   16.0746 H   0  0  0  0  0  0  0  0  0  0  0  0
   39.6496    7.4494   17.7315 H   0  0  0  0  0  0  0  0  0  0  0  0
   38.0951    7.8786   17.1055 H   0  0  0  0  0  0  0  0  0  0  0  0
   39.0423    5.2199   16.5832 H   0  0  0  0  0  0  0  0  0  0  0  0
   39.2897    3.8813   14.5066 H   0  0  0  0  0  0  0  0  0  0  0  0
   39.7744    5.0098   12.3460 H   0  0  0  0  0  0  0  0  0  0  0  0
   39.9977    7.4871   12.2596 H   0  0  0  0  0  0  0  0  0  0  0  0
   39.7203    8.8352   14.3151 H   0  0  0  0  0  0  0  0  0  0  0  0
  1  2  2  0
  2  3  1  0
  2  4  1  0
  4  5  1  0
  4 29  1  0
  4 30  1  0
  5  6  1  0
  6 11  2  0
  6  7  1  0
  7  8  1  0
  7  9  2  0
  9 10  1  0
  9 15  1  0
 10 11  1  0
 11 12  1  0
 12 13  2  0
 12 14  1  0
 15 20  1  0
 15 16  2  0
 16 17  1  0
 16 31  1  0
 17 18  2  0
 17 32  1  0
 18 19  1  0
 18 33  1  0
 19 20  2  0
 19 21  1  0
 20 34  1  0
 21 22  1  0
 22 23  1  0
 22 35  1  0
 22 36  1  0
 23 28  1  0
 23 24  2  0
 24 25  1  0
 24 37  1  0
 25 26  2  0
 25 38  1  0
 26 27  1  0
 26 39  1  0
 27 28  2  0
 27 40  1  0
 28 41  1  0
M  CHG  2   3  -1  14  -1
M  END
>  <s_m_entry_id>  (1) 
476

>  <i_f3d_flags>  (1) 
0

>  <r_epik_Ionization_Penalty>  (1) 
  0.0001

>  <r_epik_State_Penalty>  (1) 
  0.0000

>  <i_epik_Tot_Q>  (1) 
-2

>  <s_m_job_name>  (1) 
glide-dock_SP_ptp1b_core_cons

>  <r_lp_tautomer_probability>  (1) 
1

>  <r_i_docking_score>  (1) 
-7.25336655870144

>  <r_i_glide_gscore>  (1) 
-7.25336655870144

>  <r_i_glide_emodel>  (1) 
-96.7988526271728

>  <index_string>  (1) 
1:0:0

$$$$
