8:0:0
     RDKit          3D

 43 46  0  0  1  0  0  0  0  0999 V2000
   38.5521   37.1493   14.9396 F   0  0  0  0  0  0  0  0  0  0  0  0
   37.8296   36.5334   15.9021 C   0  0  0  0  0  0  0  0  0  0  0  0
   36.5025   36.1581   15.6452 C   0  0  0  0  0  0  0  0  0  0  0  0
   35.7091   35.5955   16.6541 C   0  0  0  0  0  0  0  0  0  0  0  0
   34.4637   35.1490   16.3673 F   0  0  0  0  0  0  0  0  0  0  0  0
   36.1735   35.5859   17.9776 C   0  0  0  0  0  0  0  0  0  0  0  0
   37.5161   35.9495   18.2448 C   0  0  0  0  0  0  0  0  0  0  0  0
   38.3639   36.3493   17.1921 C   0  0  0  0  0  0  0  0  0  0  0  0
   35.3520   35.0994   18.9526 O   0  0  0  0  0  0  0  0  0  0  0  0
   35.1267   35.7961   20.1110 C   0  0  0  0  0  0  0  0  0  0  0  0
   35.2488   37.1425   20.2185 C   0  0  0  0  0  0  0  0  0  0  0  0
   34.5398   35.0018   21.1923 C   0  0  0  0  0  0  0  0  0  0  0  0
   34.3060   33.8022   21.0948 O   0  0  0  0  0  0  0  0  0  0  0  0
   34.2316   35.6611   22.3214 N   0  0  0  0  0  0  0  0  0  0  0  0
   34.3361   37.0624   22.5094 C   0  0  0  0  0  0  0  0  0  0  0  0
   34.8405   37.8372   21.4418 C   0  0  0  0  0  0  0  0  0  0  0  0
   33.9494   37.6413   23.6625 N   0  0  0  0  0  0  0  0  0  0  0  0
   34.0547   38.9649   23.7506 C   0  0  0  0  0  0  0  0  0  0  0  0
   34.5033   39.7933   22.7999 N   0  0  0  0  0  0  0  0  0  0  0  0
   34.8914   39.2373   21.6266 C   0  0  0  0  0  0  0  0  0  0  0  0
   33.6700   39.5620   24.9349 N   0  0  0  0  0  0  0  0  0  0  0  0
   33.0553   38.9547   26.1142 C   0  0  0  0  0  0  0  0  0  0  0  0
   31.6731   38.3338   25.8458 C   0  0  0  0  0  0  0  0  0  0  0  0
   31.0937   37.7592   27.1495 C   0  0  0  0  0  0  0  0  0  0  0  0
   32.0065   36.8259   27.7212 O   0  0  0  0  0  0  0  0  0  0  0  0
   33.2526   37.4085   28.0897 C   0  0  0  0  0  0  0  0  0  0  0  0
   33.9665   37.9519   26.8424 C   0  0  0  0  0  0  0  0  0  0  0  0
   33.8322   35.1306   23.0810 H   0  0  0  0  0  0  0  0  0  0  0  0
   36.0617   36.3490   14.6891 H   0  0  0  0  0  0  0  0  0  0  0  0
   37.9054   35.8935   19.2511 H   0  0  0  0  0  0  0  0  0  0  0  0
   39.3834   36.6390   17.4016 H   0  0  0  0  0  0  0  0  0  0  0  0
   35.6062   37.7494   19.4000 H   0  0  0  0  0  0  0  0  0  0  0  0
   35.2525   39.8998   20.8558 H   0  0  0  0  0  0  0  0  0  0  0  0
   33.7932   40.5661   24.9881 H   0  0  0  0  0  0  0  0  0  0  0  0
   32.8957   39.7880   26.8000 H   0  0  0  0  0  0  0  0  0  0  0  0
   31.7429   37.5332   25.1098 H   0  0  0  0  0  0  0  0  0  0  0  0
   30.9926   39.0803   25.4347 H   0  0  0  0  0  0  0  0  0  0  0  0
   30.1528   37.2476   26.9478 H   0  0  0  0  0  0  0  0  0  0  0  0
   30.8748   38.5554   27.8629 H   0  0  0  0  0  0  0  0  0  0  0  0
   33.8681   36.6482   28.5710 H   0  0  0  0  0  0  0  0  0  0  0  0
   33.0932   38.1999   28.8237 H   0  0  0  0  0  0  0  0  0  0  0  0
   34.9052   38.4277   27.1274 H   0  0  0  0  0  0  0  0  0  0  0  0
   34.2236   37.1134   26.1957 H   0  0  0  0  0  0  0  0  0  0  0  0
  1  2  1  0
  2  8  2  0
  2  3  1  0
  3  4  2  0
  3 29  1  0
  4  5  1  0
  4  6  1  0
  6  7  2  0
  6  9  1  0
  7  8  1  0
  7 30  1  0
  8 31  1  0
  9 10  1  0
 10 11  2  0
 10 12  1  0
 11 16  1  0
 11 32  1  0
 12 13  2  0
 12 14  1  0
 14 28  1  0
 14 15  1  0
 15 16  2  0
 15 17  1  0
 16 20  1  0
 17 18  2  0
 18 19  1  0
 18 21  1  0
 19 20  2  0
 20 33  1  0
 21 22  1  0
 21 34  1  0
 22 27  1  0
 22 23  1  0
 22 35  1  0
 23 24  1  0
 23 36  1  0
 23 37  1  0
 24 25  1  0
 24 38  1  0
 24 39  1  0
 25 26  1  0
 26 27  1  0
 26 40  1  0
 26 41  1  0
 27 42  1  0
 27 43  1  0
M  END
>  <s_m_entry_id>  (1) 
264

>  <i_f3d_flags>  (1) 
0

>  <r_lp_tautomer_probability>  (1) 
1

>  <r_epik_Ionization_Penalty>  (1) 
  0.2720

>  <r_epik_State_Penalty>  (1) 
  0.2641

>  <i_epik_Tot_Q>  (1) 
0

>  <s_m_job_name>  (1) 
glide-dock_SP_p38_core_cons_top_1

>  <r_i_docking_score>  (1) 
-6.72735681913838

>  <r_i_glide_gscore>  (1) 
-6.99145681913838

>  <r_i_glide_emodel>  (1) 
-46.3621359981508

>  <index_string>  (1) 
8:0:0

$$$$
