26:0:0
     RDKit          3D

 58 61  0  0  1  0  0  0  0  0999 V2000
   33.3880   36.0260   20.6520 C   0  0  0  0  0  0  0  0  0  0  0  0
   33.7670   37.2220   21.2710 C   0  0  0  0  0  0  0  0  0  0  0  0
   33.3670   37.4880   22.5750 C   0  0  0  0  0  0  0  0  0  0  0  0
   33.7370   38.6650   23.2180 C   0  0  0  0  0  0  0  0  0  0  0  0
   33.3310   38.8920   24.4940 N   0  0  0  0  0  0  0  0  0  0  0  0
   32.5620   37.9840   25.1580 C   0  0  0  0  0  0  0  0  0  0  0  0
   32.1440   38.2260   26.5020 N   0  0  0  0  0  0  0  0  0  0  0  0
   32.1900   36.8330   24.5420 N   0  0  0  0  0  0  0  0  0  0  0  0
   32.5770   36.5550   23.2660 C   0  0  0  0  0  0  0  0  0  0  0  0
   32.2090   35.3840   22.6580 N   0  0  0  0  0  0  0  0  0  0  0  0
   32.5950   35.1140   21.3680 C   0  0  0  0  0  0  0  0  0  0  0  0
   32.2400   34.0380   20.8110 O   0  0  0  0  0  0  0  0  0  0  0  0
   32.5690   39.3920   27.2680 C   0  0  0  0  0  0  0  0  0  0  0  0
   31.8430   39.4170   28.6160 C   0  0  0  0  0  0  0  0  0  0  0  0
   32.4390   38.3610   29.5510 C   0  0  0  0  0  0  0  0  0  0  0  0
   33.8100   38.6140   29.7460 O   0  0  0  0  0  0  0  0  0  0  0  0
   34.4510   38.3180   28.5300 C   0  0  0  0  0  0  0  0  0  0  0  0
   34.0870   39.3690   27.4790 C   0  0  0  0  0  0  0  0  0  0  0  0
   33.7500   35.7190   19.3280 O   0  0  0  0  0  0  0  0  0  0  0  0
   36.5540   35.8860   16.8660 C   0  0  0  0  0  0  0  0  0  0  0  0
   35.2560   35.8180   17.3810 C   0  0  0  0  0  0  0  0  0  0  0  0
   35.0380   35.7680   18.7680 C   0  0  0  0  0  0  0  0  0  0  0  0
   36.1440   35.7990   19.6310 C   0  0  0  0  0  0  0  0  0  0  0  0
   35.9620   35.7620   20.9740 F   0  0  0  0  0  0  0  0  0  0  0  0
   37.4420   35.8650   19.1160 C   0  0  0  0  0  0  0  0  0  0  0  0
   37.6470   35.9070   17.7340 C   0  0  0  0  0  0  0  0  0  0  0  0
   38.9050   35.9710   17.2370 F   0  0  0  0  0  0  0  0  0  0  0  0
   31.4030   34.4060   23.3940 C   0  0  0  0  0  0  0  0  0  0  0  0
   32.2930   33.3950   24.1090 C   0  0  0  0  0  0  0  0  0  0  0  0
   31.9570   33.3080   25.5900 C   0  0  0  0  0  0  0  0  0  0  0  0
   33.3280   33.8460   26.5970 S   0  0  0  0  0  6  0  0  0  0  0  0
   33.9660   32.6540   27.2540 O   0  0  0  0  0  0  0  0  0  0  0  0
   34.3390   34.5270   25.7190 O   0  0  0  0  0  0  0  0  0  0  0  0
   32.7910   34.9890   27.8500 C   0  0  0  0  0  0  0  0  0  0  0  0
   34.3821   37.9524   20.7251 H   0  0  0  0  0  0  0  0  0  0  0  0
   34.3560   39.4088   22.6949 H   0  0  0  0  0  0  0  0  0  0  0  0
   31.5137   37.5461   26.9507 H   0  0  0  0  0  0  0  0  0  0  0  0
   32.3126   40.3022   26.7061 H   0  0  0  0  0  0  0  0  0  0  0  0
   31.9549   40.4119   29.0717 H   0  0  0  0  0  0  0  0  0  0  0  0
   30.7770   39.1977   28.4563 H   0  0  0  0  0  0  0  0  0  0  0  0
   31.9198   38.3970   30.5201 H   0  0  0  0  0  0  0  0  0  0  0  0
   32.3146   37.3656   29.0998 H   0  0  0  0  0  0  0  0  0  0  0  0
   35.5403   38.3173   28.6828 H   0  0  0  0  0  0  0  0  0  0  0  0
   34.1235   37.3279   28.1801 H   0  0  0  0  0  0  0  0  0  0  0  0
   34.5836   39.1220   26.5290 H   0  0  0  0  0  0  0  0  0  0  0  0
   34.4194   40.3585   27.8261 H   0  0  0  0  0  0  0  0  0  0  0  0
   36.7137   35.9229   15.7783 H   0  0  0  0  0  0  0  0  0  0  0  0
   34.3973   35.8035   16.6937 H   0  0  0  0  0  0  0  0  0  0  0  0
   38.3036   35.8839   19.7996 H   0  0  0  0  0  0  0  0  0  0  0  0
   30.7875   34.9333   24.1377 H   0  0  0  0  0  0  0  0  0  0  0  0
   30.7641   33.8676   22.6786 H   0  0  0  0  0  0  0  0  0  0  0  0
   32.1496   32.4053   23.6509 H   0  0  0  0  0  0  0  0  0  0  0  0
   33.3381   33.7237   24.0103 H   0  0  0  0  0  0  0  0  0  0  0  0
   31.0865   33.9474   25.7983 H   0  0  0  0  0  0  0  0  0  0  0  0
   31.7360   32.2587   25.8354 H   0  0  0  0  0  0  0  0  0  0  0  0
   32.9909   34.5635   28.8445 H   0  0  0  0  0  0  0  0  0  0  0  0
   33.3379   35.9371   27.7402 H   0  0  0  0  0  0  0  0  0  0  0  0
   31.7121   35.1732   27.7402 H   0  0  0  0  0  0  0  0  0  0  0  0
  1  2  2  0
  1 11  1  0
  1 19  1  0
  2  3  1  0
  3  4  2  0
  3  9  1  0
  4  5  1  0
  5  6  2  0
  6  7  1  0
  6  8  1  0
  7 13  1  0
  8  9  2  0
  9 10  1  0
 10 28  1  0
 10 11  1  0
 11 12  2  0
 13 18  1  0
 13 14  1  0
 14 15  1  0
 15 16  1  0
 16 17  1  0
 17 18  1  0
 19 22  1  0
 20 21  2  0
 20 26  1  0
 21 22  1  0
 22 23  2  0
 23 24  1  0
 23 25  1  0
 25 26  2  0
 26 27  1  0
 28 29  1  0
 29 30  1  0
 30 31  1  0
 31 32  2  0
 31 34  1  0
 31 33  2  0
  2 35  1  0
  4 36  1  0
  7 37  1  0
 13 38  1  0
 14 39  1  0
 14 40  1  0
 15 41  1  0
 15 42  1  0
 17 43  1  0
 17 44  1  0
 18 45  1  0
 18 46  1  0
 20 47  1  0
 21 48  1  0
 25 49  1  0
 28 50  1  0
 28 51  1  0
 29 52  1  0
 29 53  1  0
 30 54  1  0
 30 55  1  0
 34 56  1  0
 34 57  1  0
 34 58  1  0
M  END
>  <s_m_entry_id>  (1) 
76

>  <MODEL>  (1) 
14

>  <REMARK>  (1) 
 VINA RESULT:   -11.949      2.122      2.543
 INTER + INTRA:         -10.504
 INTER:                 -10.347
 INTRA:                  -0.157
 UNBOUND:                 6.335
  Name = /scratch/kmzp800/tmpvy_qp63g/tmp34ghq0st.pdb
  8 active torsions:
  status: ('A' for Active; 'I' for Inactive)
    1  A    between atoms: C3_3  and  O1_4
    2  A    between atoms: O1_4  and  C4_5
    3  A    between atoms: N2_11  and  C9_12
    4  A    between atoms: N4_20  and  C15_21
    5  A    between atoms: C15_21  and  C16_22
    6  A    between atoms: C16_22  and  C17_23
    7  A    between atoms: C17_23  and  S1_24
    8  A    between atoms: S1_24  and  C18_27
                            x       y       z     vdW  Elec       q    Type
                         _______ _______ _______ _____ _____    ______ ____

>  <TORSDO>  (1) 
F 7

>  <grid_id>  (1) 
p38-prepared

>  <grid_path>  (1) 
/projects/mai/users/kmzp800_harry/pmx_colab/docking_jobs/p38/vina_docking/input_files/p38_vina.pdbqt

>  <grid_filename>  (1) 
p38_vina.pdbqt

>  <docking_score>  (1) 
-11.949

>  <compound_name>  (1) 
lig_p38a_2p

>  <index_string>  (1) 
26:0:0

$$$$
