21:0:0
     RDKit          3D

 49 51  0  0  1  0  0  0  0  0999 V2000
   33.1280   39.5170   24.9780 N   0  0  0  0  0  0  0  0  0  0  0  0
   33.3600   38.9090   23.7070 C   0  0  0  0  0  0  0  0  0  0  0  0
   33.4440   39.6900   22.5960 N   0  0  0  0  0  0  0  0  0  0  0  0
   33.6660   39.1450   21.3720 C   0  0  0  0  0  0  0  0  0  0  0  0
   33.8120   37.7670   21.2450 C   0  0  0  0  0  0  0  0  0  0  0  0
   34.0340   37.1770   20.0060 C   0  0  0  0  0  0  0  0  0  0  0  0
   34.1650   35.7930   19.9090 C   0  0  0  0  0  0  0  0  0  0  0  0
   34.1100   35.0130   21.0830 C   0  0  0  0  0  0  0  0  0  0  0  0
   34.2980   33.7670   21.0160 O   0  0  0  0  0  0  0  0  0  0  0  0
   33.8790   35.6080   22.2970 N   0  0  0  0  0  0  0  0  0  0  0  0
   33.8090   34.7840   23.5000 C   0  0  0  0  0  0  0  0  0  0  0  0
   33.7290   36.9650   22.3960 C   0  0  0  0  0  0  0  0  0  0  0  0
   33.5060   37.5600   23.6010 N   0  0  0  0  0  0  0  0  0  0  0  0
   32.9570   38.7460   26.2010 C   0  0  0  0  0  0  0  0  0  0  0  0
   31.5040   38.8210   26.6630 C   0  0  0  0  0  0  0  0  0  0  0  0
   31.2220   37.8230   27.7740 C   0  0  0  0  0  0  0  0  0  0  0  0
   30.2720   38.3460   28.6530 O   0  0  0  0  0  0  0  0  0  0  0  0
   33.8640   39.3160   27.2760 C   0  0  0  0  0  0  0  0  0  0  0  0
   35.1880   38.5770   27.2960 C   0  0  0  0  0  0  0  0  0  0  0  0
   35.1730   37.5690   26.3330 O   0  0  0  0  0  0  0  0  0  0  0  0
   34.3930   35.2310   18.6450 O   0  0  0  0  0  0  0  0  0  0  0  0
   35.4510   35.5790   17.7930 C   0  0  0  0  0  0  0  0  0  0  0  0
   35.2460   35.8120   16.4220 C   0  0  0  0  0  0  0  0  0  0  0  0
   36.3150   36.1780   15.6000 C   0  0  0  0  0  0  0  0  0  0  0  0
   37.5950   36.3180   16.1400 C   0  0  0  0  0  0  0  0  0  0  0  0
   38.6320   36.6710   15.3430 F   0  0  0  0  0  0  0  0  0  0  0  0
   37.8050   36.0980   17.5040 C   0  0  0  0  0  0  0  0  0  0  0  0
   36.7370   35.7320   18.3290 C   0  0  0  0  0  0  0  0  0  0  0  0
   36.9540   35.5250   19.6510 F   0  0  0  0  0  0  0  0  0  0  0  0
   33.0796   40.5445   25.0318 H   0  0  0  0  0  0  0  0  0  0  0  0
   33.7302   39.7908   20.4839 H   0  0  0  0  0  0  0  0  0  0  0  0
   34.1062   37.8017   19.1035 H   0  0  0  0  0  0  0  0  0  0  0  0
   33.8638   35.4286   24.3897 H   0  0  0  0  0  0  0  0  0  0  0  0
   32.8603   34.2273   23.5084 H   0  0  0  0  0  0  0  0  0  0  0  0
   34.6502   34.0752   23.5084 H   0  0  0  0  0  0  0  0  0  0  0  0
   33.2179   37.6941   26.0126 H   0  0  0  0  0  0  0  0  0  0  0  0
   31.2984   39.8361   27.0334 H   0  0  0  0  0  0  0  0  0  0  0  0
   30.8563   38.5783   25.8077 H   0  0  0  0  0  0  0  0  0  0  0  0
   30.8391   36.8891   27.3367 H   0  0  0  0  0  0  0  0  0  0  0  0
   32.1527   37.6218   28.3247 H   0  0  0  0  0  0  0  0  0  0  0  0
   30.5623   38.1862   29.5859 H   0  0  0  0  0  0  0  0  0  0  0  0
   34.0463   40.3809   27.0694 H   0  0  0  0  0  0  0  0  0  0  0  0
   33.3751   39.1994   28.2545 H   0  0  0  0  0  0  0  0  0  0  0  0
   36.0041   39.2812   27.0768 H   0  0  0  0  0  0  0  0  0  0  0  0
   35.3442   38.1320   28.2898 H   0  0  0  0  0  0  0  0  0  0  0  0
   35.1599   36.6858   26.7800 H   0  0  0  0  0  0  0  0  0  0  0  0
   34.2383   35.7056   15.9938 H   0  0  0  0  0  0  0  0  0  0  0  0
   36.1482   36.3559   14.5274 H   0  0  0  0  0  0  0  0  0  0  0  0
   38.8128   36.2130   17.9296 H   0  0  0  0  0  0  0  0  0  0  0  0
  1 14  1  0
  1  2  1  0
  2  3  2  0
  2 13  1  0
  3  4  1  0
  4  5  2  0
  5 12  1  0
  5  6  1  0
  6  7  2  0
  7  8  1  0
  7 21  1  0
  8 10  1  0
  8  9  2  0
 10 12  1  0
 10 11  1  0
 12 13  2  0
 14 15  1  0
 14 18  1  0
 15 16  1  0
 16 17  1  0
 18 19  1  0
 19 20  1  0
 21 22  1  0
 22 28  1  0
 22 23  2  0
 23 24  1  0
 24 25  2  0
 25 27  1  0
 25 26  1  0
 27 28  2  0
 28 29  1  0
  1 30  1  0
  4 31  1  0
  6 32  1  0
 11 33  1  0
 11 34  1  0
 11 35  1  0
 14 36  1  0
 15 37  1  0
 15 38  1  0
 16 39  1  0
 16 40  1  0
 17 41  1  0
 18 42  1  0
 18 43  1  0
 19 44  1  0
 19 45  1  0
 20 46  1  0
 23 47  1  0
 24 48  1  0
 27 49  1  0
M  END
>  <s_m_entry_id>  (1) 
71

>  <MODEL>  (1) 
3

>  <REMARK>  (1) 
 VINA RESULT:    -7.986      1.182      1.479
 INTER + INTRA:         -11.583
 INTER:                 -10.476
 INTRA:                  -1.107
 UNBOUND:                 0.138
  Name = /scratch/kmzp800/tmps7kfnij8/tmp44yci8wc.pdb
  10 active torsions:
  status: ('A' for Active; 'I' for Inactive)
    1  A    between atoms: O1_1  and  C1_2
    2  A    between atoms: C1_2  and  C2_3
    3  A    between atoms: C2_3  and  C3_4
    4  A    between atoms: C3_4  and  N1_5
    5  A    between atoms: C3_4  and  C18_27
    6  A    between atoms: C8_11  and  O2_12
    7  A    between atoms: O2_12  and  C9_13
    8  A    between atoms: N3_23  and  C16_24
    9  A    between atoms: C18_27  and  C19_28
   10  A    between atoms: C19_28  and  O4_29
                            x       y       z     vdW  Elec       q    Type
                         _______ _______ _______ _____ _____    ______ ____

>  <TORSDO>  (1) 
F 9

>  <grid_id>  (1) 
p38-prepared

>  <grid_path>  (1) 
/projects/mai/users/kmzp800_harry/pmx_colab/docking_jobs/p38/vina_docking/input_files/p38_vina.pdbqt

>  <grid_filename>  (1) 
p38_vina.pdbqt

>  <docking_score>  (1) 
-7.986

>  <compound_name>  (1) 
lig_p38a_3flw

>  <index_string>  (1) 
21:0:0

$$$$
