3:0:0
     RDKit          3D

 48 52  0  0  1  0  0  0  0  0999 V2000
    5.6150   -0.5820   16.3400 C   0  0  0  0  0  0  0  0  0  0  0  0
    4.3420   -1.0390   16.2320 N   0  0  0  0  0  0  0  0  0  0  0  0
    3.8290   -0.3110   15.2250 C   0  0  0  0  0  0  0  0  0  0  0  0
    2.5380   -0.3920   14.7110 C   0  0  0  0  0  0  0  0  0  0  0  0
    1.5930   -1.3240   15.2560 N   0  0  0  0  0  0  0  0  0  0  0  0
    2.2140    0.4420   13.6780 N   0  0  0  0  0  0  0  0  0  0  0  0
    3.1100    1.3350   13.1500 C   0  0  0  0  0  0  0  0  0  0  0  0
    4.4100    1.3950   13.6900 C   0  0  0  0  0  0  0  0  0  0  0  0
    4.7040    0.5580   14.7120 N   0  0  0  0  0  0  0  0  0  0  0  0
    5.8480    0.4150   15.3950 C   0  0  0  0  0  0  0  0  0  0  0  0
    2.7060    2.2140   12.0340 C   0  0  0  0  0  0  0  0  0  0  0  0
    3.6590    2.5970   11.0570 C   0  0  0  0  0  0  0  0  0  0  0  0
    3.3010    3.4330    9.9850 C   0  0  0  0  0  0  0  0  0  0  0  0
    1.9810    3.8690    9.9210 C   0  0  0  0  0  0  0  0  0  0  0  0
    1.3650    4.6790    8.9990 C   0  0  0  0  0  0  0  0  0  0  0  0
    0.0460    4.7630    9.4520 C   0  0  0  0  0  0  0  0  0  0  0  0
   -0.1430    4.0460   10.5880 N   0  0  0  0  0  0  0  0  0  0  0  0
    1.0550    3.5080   10.8550 C   0  0  0  0  0  0  0  0  0  0  0  0
    1.3770    2.6820   11.9280 C   0  0  0  0  0  0  0  0  0  0  0  0
    0.2350   -1.5250   14.8390 C   0  0  0  0  0  0  0  0  0  0  0  0
   -0.4440   -2.7280   15.0680 C   0  0  0  0  0  0  0  0  0  0  0  0
   -1.7670   -2.8830   14.6470 C   0  0  0  0  0  0  0  0  0  0  0  0
   -2.4300   -1.8370   13.9880 C   0  0  0  0  0  0  0  0  0  0  0  0
   -1.7560   -0.6290   13.7550 C   0  0  0  0  0  0  0  0  0  0  0  0
   -0.4260   -0.4820   14.1820 C   0  0  0  0  0  0  0  0  0  0  0  0
   -3.7550   -1.9750   13.5590 O   0  0  0  0  0  0  0  0  0  0  0  0
   -4.2030   -3.0850   12.7930 C   0  0  0  0  0  0  0  0  0  0  0  0
   -2.4250    0.4100   13.0960 O   0  0  0  0  0  0  0  0  0  0  0  0
   -1.8760    1.0870   11.9740 C   0  0  0  0  0  0  0  0  0  0  0  0
    6.3554   -0.9457   17.0677 H   0  0  0  0  0  0  0  0  0  0  0  0
    1.9262   -1.9136   16.0320 H   0  0  0  0  0  0  0  0  0  0  0  0
    5.1591    2.0970   13.2950 H   0  0  0  0  0  0  0  0  0  0  0  0
    6.7834    0.9728   15.2406 H   0  0  0  0  0  0  0  0  0  0  0  0
    4.6943    2.2346   11.1389 H   0  0  0  0  0  0  0  0  0  0  0  0
    4.0375    3.7316    9.2245 H   0  0  0  0  0  0  0  0  0  0  0  0
    1.8074    5.1520    8.1099 H   0  0  0  0  0  0  0  0  0  0  0  0
   -0.7434    5.3404    8.9486 H   0  0  0  0  0  0  0  0  0  0  0  0
   -1.0146    3.9388   11.1263 H   0  0  0  0  0  0  0  0  0  0  0  0
    0.6178    2.4013   12.6729 H   0  0  0  0  0  0  0  0  0  0  0  0
    0.0670   -3.5554   15.5821 H   0  0  0  0  0  0  0  0  0  0  0  0
   -2.2922   -3.8313   14.8334 H   0  0  0  0  0  0  0  0  0  0  0  0
    0.1023    0.4650   13.9974 H   0  0  0  0  0  0  0  0  0  0  0  0
   -4.5278   -3.8898   13.4689 H   0  0  0  0  0  0  0  0  0  0  0  0
   -5.0468   -2.7761   12.1586 H   0  0  0  0  0  0  0  0  0  0  0  0
   -3.3811   -3.4484   12.1586 H   0  0  0  0  0  0  0  0  0  0  0  0
   -1.2185    1.8978   12.3207 H   0  0  0  0  0  0  0  0  0  0  0  0
   -1.2946    0.3780   11.3663 H   0  0  0  0  0  0  0  0  0  0  0  0
   -2.6898    1.5094   11.3663 H   0  0  0  0  0  0  0  0  0  0  0  0
  1  2  1  0
  1 10  2  0
  2  3  2  0
  3  4  1  0
  3  9  1  0
  4  5  1  0
  4  6  2  0
  5 20  1  0
  6  7  1  0
  7  8  2  0
  7 11  1  0
  8  9  1  0
  9 10  1  0
 11 12  2  0
 11 19  1  0
 12 13  1  0
 13 14  2  0
 14 18  1  0
 14 15  1  0
 15 16  2  0
 16 17  1  0
 17 18  1  0
 18 19  2  0
 20 21  2  0
 20 25  1  0
 21 22  1  0
 22 23  2  0
 23 24  1  0
 23 26  1  0
 24 25  2  0
 24 28  1  0
 26 27  1  0
 28 29  1  0
  1 30  1  0
  5 31  1  0
  8 32  1  0
 10 33  1  0
 12 34  1  0
 13 35  1  0
 15 36  1  0
 16 37  1  0
 17 38  1  0
 19 39  1  0
 21 40  1  0
 22 41  1  0
 25 42  1  0
 27 43  1  0
 27 44  1  0
 27 45  1  0
 29 46  1  0
 29 47  1  0
 29 48  1  0
M  END
>  <s_m_entry_id>  (1) 
260

>  <MODEL>  (1) 
1

>  <REMARK>  (1) 
 VINA RESULT:    -9.771      0.000      0.000
 INTER + INTRA:         -12.194
 INTER:                 -11.814
 INTRA:                  -0.380
 UNBOUND:                -0.138
  Name = /scratch/kmzp800/tmp9t2klglj/tmpdsotmlg_.pdb
  6 active torsions:
  status: ('A' for Active; 'I' for Inactive)
    1  A    between atoms: N2_5  and  C4_6
    2  A    between atoms: C7_9  and  O1_10
    3  A    between atoms: O1_10  and  C8_11
    4  A    between atoms: C9_12  and  O2_13
    5  A    between atoms: O2_13  and  C10_14
    6  A    between atoms: C12_17  and  C13_18
                            x       y       z     vdW  Elec       q    Type
                         _______ _______ _______ _____ _____    ______ ____

>  <TORSDO>  (1) 
F 4

>  <grid_id>  (1) 
syk-prepared

>  <grid_path>  (1) 
syk_vina.pdbqt

>  <grid_filename>  (1) 
syk_vina.pdbqt

>  <docking_score>  (1) 
-9.771

>  <compound_name>  (1) 
CHEMBL3265016

>  <index_string>  (1) 
3:0:0

>  <s_m_Source_Path>  (1) 
/projects/mai/users/kmzp800_harry/pmx_colab/docking_jobs/syk/vina_prep/output

>  <s_m_Source_File>  (1) 
ptp1b_docked_conformers.sdf

>  <i_m_Source_File_Index>  (1) 
84

$$$$
