6:0:0
     RDKit          3D

 65 70  0  0  1  0  0  0  0  0999 V2000
   -1.4260   -0.7200   13.7460 C   0  0  0  0  0  0  0  0  0  0  0  0
   -1.7600   -1.9280   14.3750 C   0  0  0  0  0  0  0  0  0  0  0  0
   -0.7920   -2.6470   15.0810 C   0  0  0  0  0  0  0  0  0  0  0  0
    0.5160   -2.1640   15.1630 C   0  0  0  0  0  0  0  0  0  0  0  0
    0.8680   -0.9570   14.5400 C   0  0  0  0  0  0  0  0  0  0  0  0
   -0.1110   -0.2430   13.8340 C   0  0  0  0  0  0  0  0  0  0  0  0
    2.2470   -0.4330   14.6180 C   0  0  0  0  0  0  0  0  0  0  0  0
    2.6660    0.5240   13.7300 N   0  0  0  0  0  0  0  0  0  0  0  0
    3.9290    1.0430   13.7550 C   0  0  0  0  0  0  0  0  0  0  0  0
    4.3540    2.0440   12.8200 N   0  0  0  0  0  0  0  0  0  0  0  0
    4.8020    0.5650   14.7300 C   0  0  0  0  0  0  0  0  0  0  0  0
    6.0760    0.9440   14.9240 N   0  0  0  0  0  0  0  0  0  0  0  0
    6.4760    0.1910   15.9810 C   0  0  0  0  0  0  0  0  0  0  0  0
    5.4320   -0.6290   16.4060 C   0  0  0  0  0  0  0  0  0  0  0  0
    4.3970   -0.3670   15.5970 N   0  0  0  0  0  0  0  0  0  0  0  0
    3.1510   -0.8970   15.5930 C   0  0  0  0  0  0  0  0  0  0  0  0
    3.5740    2.6290   11.7680 C   0  0  0  0  0  0  0  0  0  0  0  0
    4.1310    2.9680   10.5290 C   0  0  0  0  0  0  0  0  0  0  0  0
    3.3380    3.5360    9.5290 C   0  0  0  0  0  0  0  0  0  0  0  0
    1.9730    3.7740    9.7550 C   0  0  0  0  0  0  0  0  0  0  0  0
    1.4070    3.4370   10.9940 C   0  0  0  0  0  0  0  0  0  0  0  0
    2.2140    2.8660   11.9920 C   0  0  0  0  0  0  0  0  0  0  0  0
    1.1630    4.3420    8.7650 O   0  0  0  0  0  0  0  0  0  0  0  0
    0.1870    3.5960    8.0490 C   0  0  0  0  0  0  0  0  0  0  0  0
    0.0460    3.6760   11.2110 O   0  0  0  0  0  0  0  0  0  0  0  0
   -0.4870    4.9830   11.3830 C   0  0  0  0  0  0  0  0  0  0  0  0
   -2.1840    1.3990   12.6210 N   0  0  0  0  0  0  0  0  0  0  0  0
   -2.4450    0.0400   13.0020 C   0  0  0  0  0  0  0  0  0  0  0  0
   -3.5410   -0.5100   12.7070 O   0  0  0  0  0  0  0  0  0  0  0  0
   -4.7880    4.0390   10.5470 C   0  0  0  0  0  0  0  0  0  0  0  0
   -4.2610    2.9200    9.8870 C   0  0  0  0  0  0  0  0  0  0  0  0
   -3.4040    2.0440   10.5590 C   0  0  0  0  0  0  0  0  0  0  0  0
   -3.0610    2.2750   11.8990 C   0  0  0  0  0  0  0  0  0  0  0  0
   -3.5870    3.3920   12.5560 C   0  0  0  0  0  0  0  0  0  0  0  0
   -4.4450    4.2680   11.8870 C   0  0  0  0  0  0  0  0  0  0  0  0
   -6.4950    4.6660    8.7580 C   0  0  0  0  0  0  0  0  0  0  0  0
   -7.1560    5.7910    8.4240 N   0  0  0  0  0  0  0  0  0  0  0  0
   -6.8010    6.7660    9.2460 N   0  0  0  0  0  0  0  0  0  0  0  0
   -5.9030    6.2960   10.1310 C   0  0  0  0  0  0  0  0  0  0  0  0
   -5.6910    4.9620    9.8410 C   0  0  0  0  0  0  0  0  0  0  0  0
   -2.7891   -2.3114   14.3123 H   0  0  0  0  0  0  0  0  0  0  0  0
   -1.0602   -3.5939   15.5724 H   0  0  0  0  0  0  0  0  0  0  0  0
    1.2750   -2.7334   15.7195 H   0  0  0  0  0  0  0  0  0  0  0  0
    0.1567    0.7041   13.3427 H   0  0  0  0  0  0  0  0  0  0  0  0
    5.3235    2.3788   12.9140 H   0  0  0  0  0  0  0  0  0  0  0  0
    7.4773    0.2234   16.4353 H   0  0  0  0  0  0  0  0  0  0  0  0
    5.4537   -1.3473   17.2388 H   0  0  0  0  0  0  0  0  0  0  0  0
    2.8554   -1.6628   16.3253 H   0  0  0  0  0  0  0  0  0  0  0  0
    5.1996    2.7860   10.3419 H   0  0  0  0  0  0  0  0  0  0  0  0
    3.7856    3.7983    8.5590 H   0  0  0  0  0  0  0  0  0  0  0  0
    1.7701    2.6016   12.9631 H   0  0  0  0  0  0  0  0  0  0  0  0
   -0.4796    3.0865    8.7604 H   0  0  0  0  0  0  0  0  0  0  0  0
   -0.4026    4.2758    7.4164 H   0  0  0  0  0  0  0  0  0  0  0  0
    0.6882    2.8486    7.4164 H   0  0  0  0  0  0  0  0  0  0  0  0
   -0.5771    5.2039   12.4568 H   0  0  0  0  0  0  0  0  0  0  0  0
    0.1835    5.7173   10.9126 H   0  0  0  0  0  0  0  0  0  0  0  0
   -1.4798    5.0390   10.9126 H   0  0  0  0  0  0  0  0  0  0  0  0
   -1.2699    1.7864   12.8951 H   0  0  0  0  0  0  0  0  0  0  0  0
   -4.5232    2.7306    8.8356 H   0  0  0  0  0  0  0  0  0  0  0  0
   -2.9960    1.1679   10.0336 H   0  0  0  0  0  0  0  0  0  0  0  0
   -3.3232    3.5820   13.6069 H   0  0  0  0  0  0  0  0  0  0  0  0
   -4.8539    5.1424   12.4145 H   0  0  0  0  0  0  0  0  0  0  0  0
   -6.5801    3.6894    8.2590 H   0  0  0  0  0  0  0  0  0  0  0  0
   -7.1562    7.7322    9.2133 H   0  0  0  0  0  0  0  0  0  0  0  0
   -5.4247    6.8696   10.9386 H   0  0  0  0  0  0  0  0  0  0  0  0
  1  6  1  0
  1  2  2  0
  1 28  1  0
  2  3  1  0
  3  4  2  0
  4  5  1  0
  5  7  1  0
  5  6  2  0
  7 16  2  0
  7  8  1  0
  8  9  2  0
  9 11  1  0
  9 10  1  0
 10 17  1  0
 11 12  2  0
 11 15  1  0
 12 13  1  0
 13 14  2  0
 14 15  1  0
 15 16  1  0
 17 22  1  0
 17 18  2  0
 18 19  1  0
 19 20  2  0
 20 21  1  0
 20 23  1  0
 21 25  1  0
 21 22  2  0
 23 24  1  0
 25 26  1  0
 27 28  1  0
 27 33  1  0
 28 29  2  0
 30 35  1  0
 30 31  2  0
 30 40  1  0
 31 32  1  0
 32 33  2  0
 33 34  1  0
 34 35  2  0
 36 40  1  0
 36 37  2  0
 37 38  1  0
 38 39  1  0
 39 40  2  0
  2 41  1  0
  3 42  1  0
  4 43  1  0
  6 44  1  0
 10 45  1  0
 13 46  1  0
 14 47  1  0
 16 48  1  0
 18 49  1  0
 19 50  1  0
 22 51  1  0
 24 52  1  0
 24 53  1  0
 24 54  1  0
 26 55  1  0
 26 56  1  0
 26 57  1  0
 27 58  1  0
 31 59  1  0
 32 60  1  0
 34 61  1  0
 35 62  1  0
 36 63  1  0
 38 64  1  0
 39 65  1  0
M  END
>  <s_m_entry_id>  (1) 
361

>  <MODEL>  (1) 
2

>  <REMARK>  (1) 
 VINA RESULT:    -9.287      3.490      7.809
 INTER + INTRA:         -12.928
 INTER:                 -11.814
 INTRA:                  -1.114
 UNBOUND:                 0.159
  Name = /scratch/kmzp800/tmpejou3907/tmpyzkcp4vp.pdb
  9 active torsions:
  status: ('A' for Active; 'I' for Inactive)
    1  A    between atoms: C3_5  and  C4_6
    2  A    between atoms: C7_9  and  N3_10
    3  A    between atoms: C8_11  and  C9_13
    4  A    between atoms: C13_17  and  C14_18
    5  A    between atoms: N5_21  and  C16_22
    6  A    between atoms: C19_25  and  O2_26
    7  A    between atoms: O2_26  and  C20_27
    8  A    between atoms: C21_28  and  O3_29
    9  A    between atoms: O3_29  and  C22_30
                            x       y       z     vdW  Elec       q    Type
                         _______ _______ _______ _____ _____    ______ ____

>  <TORSDO>  (1) 
F 7

>  <grid_id>  (1) 
syk-prepared

>  <grid_path>  (1) 
syk_vina.pdbqt

>  <grid_filename>  (1) 
syk_vina.pdbqt

>  <docking_score>  (1) 
-9.287

>  <compound_name>  (1) 
CHEMBL3265004

>  <index_string>  (1) 
6:0:0

>  <s_m_Source_Path>  (1) 
/projects/mai/users/kmzp800_harry/pmx_colab/docking_jobs/syk/vina_prep/output

>  <s_m_Source_File>  (1) 
ptp1b_docked_conformers.sdf

>  <i_m_Source_File_Index>  (1) 
185

$$$$
