29:0:0
     RDKit          3D

 46 49  0  0  1  0  0  0  0  0999 V2000
   34.4160   36.2370   20.1710 C   0  0  0  0  0  0  0  0  0  0  0  0
   34.1960   37.5890   20.4280 C   0  0  0  0  0  0  0  0  0  0  0  0
   34.2680   38.0660   21.7310 C   0  0  0  0  0  0  0  0  0  0  0  0
   34.0650   39.4130   22.0180 C   0  0  0  0  0  0  0  0  0  0  0  0
   34.1480   39.8490   23.3010 N   0  0  0  0  0  0  0  0  0  0  0  0
   34.4290   38.9900   24.3170 C   0  0  0  0  0  0  0  0  0  0  0  0
   34.5080   39.4850   25.6550 N   0  0  0  0  0  0  0  0  0  0  0  0
   34.6280   37.6700   24.0550 N   0  0  0  0  0  0  0  0  0  0  0  0
   34.5560   37.1830   22.7850 C   0  0  0  0  0  0  0  0  0  0  0  0
   34.7500   35.8520   22.5280 N   0  0  0  0  0  0  0  0  0  0  0  0
   35.0310   34.9370   23.6310 C   0  0  0  0  0  0  0  0  0  0  0  0
   34.6720   35.3640   21.2490 C   0  0  0  0  0  0  0  0  0  0  0  0
   34.8010   34.1270   21.0350 O   0  0  0  0  0  0  0  0  0  0  0  0
   34.8310   38.6370   26.7950 C   0  0  0  0  0  0  0  0  0  0  0  0
   33.5380   38.0550   27.3820 C   0  0  0  0  0  0  0  0  0  0  0  0
   32.8870   38.9890   28.4140 C   0  0  0  0  0  0  0  0  0  0  0  0
   33.4080   40.2900   28.3250 O   0  0  0  0  0  0  0  0  0  0  0  0
   34.7250   40.2080   28.8100 C   0  0  0  0  0  0  0  0  0  0  0  0
   35.6310   39.4350   27.8380 C   0  0  0  0  0  0  0  0  0  0  0  0
   34.3310   35.7870   18.8450 O   0  0  0  0  0  0  0  0  0  0  0  0
   36.2820   35.5340   15.6820 C   0  0  0  0  0  0  0  0  0  0  0  0
   37.5780   35.7100   16.1730 C   0  0  0  0  0  0  0  0  0  0  0  0
   37.7870   35.9120   17.5400 C   0  0  0  0  0  0  0  0  0  0  0  0
   39.0440   36.0770   18.0160 F   0  0  0  0  0  0  0  0  0  0  0  0
   36.6990   35.9400   18.4180 C   0  0  0  0  0  0  0  0  0  0  0  0
   35.3960   35.7750   17.9340 C   0  0  0  0  0  0  0  0  0  0  0  0
   35.1930   35.5630   16.5600 C   0  0  0  0  0  0  0  0  0  0  0  0
   33.9659   38.2769   19.6011 H   0  0  0  0  0  0  0  0  0  0  0  0
   33.8381   40.1217   21.2079 H   0  0  0  0  0  0  0  0  0  0  0  0
   34.3287   40.4856   25.8210 H   0  0  0  0  0  0  0  0  0  0  0  0
   34.8716   35.4560   24.5877 H   0  0  0  0  0  0  0  0  0  0  0  0
   34.3580   34.0692   23.5681 H   0  0  0  0  0  0  0  0  0  0  0  0
   36.0751   34.5966   23.5681 H   0  0  0  0  0  0  0  0  0  0  0  0
   35.4638   37.7975   26.4712 H   0  0  0  0  0  0  0  0  0  0  0  0
   32.8247   37.8832   26.5624 H   0  0  0  0  0  0  0  0  0  0  0  0
   33.7970   37.1178   27.8963 H   0  0  0  0  0  0  0  0  0  0  0  0
   31.8027   39.0240   28.2319 H   0  0  0  0  0  0  0  0  0  0  0  0
   33.1003   38.5977   29.4197 H   0  0  0  0  0  0  0  0  0  0  0  0
   35.1233   41.2252   28.9390 H   0  0  0  0  0  0  0  0  0  0  0  0
   34.7086   39.6718   29.7703 H   0  0  0  0  0  0  0  0  0  0  0  0
   36.2529   38.7356   28.4161 H   0  0  0  0  0  0  0  0  0  0  0  0
   36.2449   40.1703   27.2971 H   0  0  0  0  0  0  0  0  0  0  0  0
   36.1179   35.3728   14.6063 H   0  0  0  0  0  0  0  0  0  0  0  0
   38.4346   35.6896   15.4832 H   0  0  0  0  0  0  0  0  0  0  0  0
   36.8679   36.0924   19.4942 H   0  0  0  0  0  0  0  0  0  0  0  0
   34.1735   35.4192   16.1729 H   0  0  0  0  0  0  0  0  0  0  0  0
  1  2  2  0
  1 12  1  0
  1 20  1  0
  2  3  1  0
  3  4  2  0
  3  9  1  0
  4  5  1  0
  5  6  2  0
  6  7  1  0
  6  8  1  0
  7 14  1  0
  8  9  2  0
  9 10  1  0
 10 11  1  0
 10 12  1  0
 12 13  2  0
 14 15  1  0
 14 19  1  0
 15 16  1  0
 16 17  1  0
 17 18  1  0
 18 19  1  0
 20 26  1  0
 21 22  2  0
 21 27  1  0
 22 23  1  0
 23 24  1  0
 23 25  2  0
 25 26  1  0
 26 27  2  0
  2 28  1  0
  4 29  1  0
  7 30  1  0
 11 31  1  0
 11 32  1  0
 11 33  1  0
 14 34  1  0
 15 35  1  0
 15 36  1  0
 16 37  1  0
 16 38  1  0
 18 39  1  0
 18 40  1  0
 19 41  1  0
 19 42  1  0
 21 43  1  0
 22 44  1  0
 25 45  1  0
 27 46  1  0
M  END
>  <s_m_entry_id>  (1) 
79

>  <MODEL>  (1) 
1

>  <REMARK>  (1) 
 VINA RESULT:    -8.900      0.000      0.000
 INTER + INTRA:         -10.772
 INTER:                 -10.178
 INTRA:                  -0.594
 UNBOUND:                -0.311
  Name = /scratch/kmzp800/tmpd6bkhvlk/tmpizb4h_t8.pdb
  4 active torsions:
  status: ('A' for Active; 'I' for Inactive)
    1  A    between atoms: C5_6  and  O1_7
    2  A    between atoms: O1_7  and  C6_8
    3  A    between atoms: N2_14  and  C11_15
    4  A    between atoms: N4_23  and  C17_24
                            x       y       z     vdW  Elec       q    Type
                         _______ _______ _______ _____ _____    ______ ____

>  <TORSDO>  (1) 
F 3

>  <grid_id>  (1) 
p38-prepared

>  <grid_path>  (1) 
/projects/mai/users/kmzp800_harry/pmx_colab/docking_jobs/p38/vina_docking/input_files/p38_vina.pdbqt

>  <grid_filename>  (1) 
p38_vina.pdbqt

>  <docking_score>  (1) 
-8.9

>  <compound_name>  (1) 
lig_p38a_2f

>  <index_string>  (1) 
29:0:0

$$$$
