30:0:0
     RDKit          3D

 45 48  0  0  1  0  0  0  0  0999 V2000
   35.4180   36.5090   19.8210 C   0  0  0  0  0  0  0  0  0  0  0  0
   35.2310   37.8680   20.0840 C   0  0  0  0  0  0  0  0  0  0  0  0
   34.6640   38.2730   21.2860 C   0  0  0  0  0  0  0  0  0  0  0  0
   34.4610   39.6200   21.5700 C   0  0  0  0  0  0  0  0  0  0  0  0
   33.9050   39.9830   22.7550 N   0  0  0  0  0  0  0  0  0  0  0  0
   33.5410   39.0490   23.6750 C   0  0  0  0  0  0  0  0  0  0  0  0
   32.9570   39.4690   24.9130 N   0  0  0  0  0  0  0  0  0  0  0  0
   33.7330   37.7270   23.4120 N   0  0  0  0  0  0  0  0  0  0  0  0
   34.2860   37.3120   22.2380 C   0  0  0  0  0  0  0  0  0  0  0  0
   34.4770   35.9810   21.9810 N   0  0  0  0  0  0  0  0  0  0  0  0
   34.0810   34.9910   22.9790 C   0  0  0  0  0  0  0  0  0  0  0  0
   35.0330   35.5650   20.7990 C   0  0  0  0  0  0  0  0  0  0  0  0
   35.1890   34.3320   20.5750 O   0  0  0  0  0  0  0  0  0  0  0  0
   37.3320   35.3770   16.1500 C   0  0  0  0  0  0  0  0  0  0  0  0
   38.0870   35.8000   17.2450 C   0  0  0  0  0  0  0  0  0  0  0  0
   37.4500   36.1570   18.4360 C   0  0  0  0  0  0  0  0  0  0  0  0
   36.0520   36.0960   18.5470 C   0  0  0  0  0  0  0  0  0  0  0  0
   35.2940   35.6650   17.4340 C   0  0  0  0  0  0  0  0  0  0  0  0
   33.5440   35.4950   17.4950 Cl  0  0  0  0  0  0  0  0  0  0  0  0
   35.9420   35.3080   16.2460 C   0  0  0  0  0  0  0  0  0  0  0  0
   32.5260   38.5650   25.9750 C   0  0  0  0  0  0  0  0  0  0  0  0
   31.1810   37.9190   25.6320 C   0  0  0  0  0  0  0  0  0  0  0  0
   30.6740   37.1460   26.8490 C   0  0  0  0  0  0  0  0  0  0  0  0
   30.5280   38.0180   27.9440 O   0  0  0  0  0  0  0  0  0  0  0  0
   31.8260   38.3680   28.3570 C   0  0  0  0  0  0  0  0  0  0  0  0
   32.4720   39.2880   27.3220 C   0  0  0  0  0  0  0  0  0  0  0  0
   35.5330   38.6185   19.3386 H   0  0  0  0  0  0  0  0  0  0  0  0
   34.7498   40.3881   20.8375 H   0  0  0  0  0  0  0  0  0  0  0  0
   32.8322   40.4801   25.0649 H   0  0  0  0  0  0  0  0  0  0  0  0
   34.2448   35.4005   23.9867 H   0  0  0  0  0  0  0  0  0  0  0  0
   33.0161   34.7470   22.8510 H   0  0  0  0  0  0  0  0  0  0  0  0
   34.6839   34.0799   22.8510 H   0  0  0  0  0  0  0  0  0  0  0  0
   37.8330   35.0980   15.2113 H   0  0  0  0  0  0  0  0  0  0  0  0
   39.1832   35.8523   17.1703 H   0  0  0  0  0  0  0  0  0  0  0  0
   38.0502   36.4894   19.2958 H   0  0  0  0  0  0  0  0  0  0  0  0
   35.3510   34.9706   15.3818 H   0  0  0  0  0  0  0  0  0  0  0  0
   33.2699   37.7592   26.0604 H   0  0  0  0  0  0  0  0  0  0  0  0
   30.4549   38.7002   25.3629 H   0  0  0  0  0  0  0  0  0  0  0  0
   31.3053   37.2324   24.7817 H   0  0  0  0  0  0  0  0  0  0  0  0
   29.7007   36.6913   26.6126 H   0  0  0  0  0  0  0  0  0  0  0  0
   31.3992   36.3599   27.1064 H   0  0  0  0  0  0  0  0  0  0  0  0
   31.7727   38.8885   29.3246 H   0  0  0  0  0  0  0  0  0  0  0  0
   32.4318   37.4554   28.4579 H   0  0  0  0  0  0  0  0  0  0  0  0
   33.4921   39.5452   27.6433 H   0  0  0  0  0  0  0  0  0  0  0  0
   31.8800   40.2100   27.2246 H   0  0  0  0  0  0  0  0  0  0  0  0
  1  2  2  0
  1 12  1  0
  1 17  1  0
  2  3  1  0
  3  4  2  0
  3  9  1  0
  4  5  1  0
  5  6  2  0
  6  7  1  0
  6  8  1  0
  7 21  1  0
  8  9  2  0
  9 10  1  0
 10 11  1  0
 10 12  1  0
 12 13  2  0
 14 20  2  0
 14 15  1  0
 15 16  2  0
 16 17  1  0
 17 18  2  0
 18 19  1  0
 18 20  1  0
 21 26  1  0
 21 22  1  0
 22 23  1  0
 23 24  1  0
 24 25  1  0
 25 26  1  0
  2 27  1  0
  4 28  1  0
  7 29  1  0
 11 30  1  0
 11 31  1  0
 11 32  1  0
 14 33  1  0
 15 34  1  0
 16 35  1  0
 20 36  1  0
 21 37  1  0
 22 38  1  0
 22 39  1  0
 23 40  1  0
 23 41  1  0
 25 42  1  0
 25 43  1  0
 26 44  1  0
 26 45  1  0
M  END
>  <s_m_entry_id>  (1) 
80

>  <MODEL>  (1) 
1

>  <REMARK>  (1) 
 VINA RESULT:   -11.293      0.000      0.000
 INTER + INTRA:         -10.384
 INTER:                  -9.785
 INTRA:                  -0.599
 UNBOUND:                 2.229
  Name = /scratch/kmzp800/tmpch0ik75a/tmpah60q55r.pdb
  3 active torsions:
  status: ('A' for Active; 'I' for Inactive)
    1  A    between atoms: C4_4  and  C5_5
    2  A    between atoms: N2_11  and  C10_12
    3  A    between atoms: N4_20  and  C16_21
                            x       y       z     vdW  Elec       q    Type
                         _______ _______ _______ _____ _____    ______ ____

>  <TORSDO>  (1) 
F 2

>  <grid_id>  (1) 
p38-prepared

>  <grid_path>  (1) 
/projects/mai/users/kmzp800_harry/pmx_colab/docking_jobs/p38/vina_docking/input_files/p38_vina.pdbqt

>  <grid_filename>  (1) 
p38_vina.pdbqt

>  <docking_score>  (1) 
-11.293

>  <compound_name>  (1) 
lig_p38a_2c

>  <index_string>  (1) 
30:0:0

$$$$
