3:0:0
     RDKit          3D

 37 39  0  0  1  0  0  0  0  0999 V2000
  -15.1921  -19.2516  -25.9386 C   0  0  0  0  0  0  0  0  0  0  0  0
  -14.7764  -19.8442  -27.1497 C   0  0  0  0  0  0  0  0  0  0  0  0
  -15.4359  -20.0811  -24.8215 C   0  0  0  0  0  0  0  0  0  0  0  0
  -14.5433  -21.2151  -27.2197 C   0  0  0  0  0  0  0  0  0  0  0  0
  -15.2103  -21.4659  -24.9054 C   0  0  0  0  0  0  0  0  0  0  0  0
  -14.8472  -16.9954  -26.7589 N   0  0  0  0  0  0  0  0  0  0  0  0
  -14.7459  -22.0450  -26.1071 C   0  0  0  0  0  0  0  0  0  0  0  0
  -14.4514  -23.5321  -26.1784 C   0  0  0  0  0  0  0  0  0  0  0  0
  -16.3601  -15.9399  -24.6113 C   0  0  0  0  0  0  0  0  0  0  0  0
  -16.1164  -17.2352  -24.8117 N   0  0  0  0  0  0  0  0  0  0  0  0
  -15.3635  -17.7731  -25.8540 C   0  0  0  0  0  0  0  0  0  0  0  0
  -17.0654  -15.5723  -23.6781 O   0  0  0  0  0  0  0  0  0  0  0  0
  -13.1759  -23.8211  -25.3705 C   0  0  0  0  0  0  0  0  0  0  0  0
  -14.1795  -23.9717  -27.5101 O   0  0  0  0  0  0  0  0  0  0  0  0
  -15.6849  -24.3111  -25.6960 C   0  0  0  0  0  0  0  0  0  0  0  0
  -15.0350  -15.6084  -26.6932 C   0  0  0  0  0  0  0  0  0  0  0  0
  -15.7381  -15.0199  -25.6190 C   0  0  0  0  0  0  0  0  0  0  0  0
  -15.8233  -13.6149  -25.5280 C   0  0  0  0  0  0  0  0  0  0  0  0
  -15.2202  -12.8020  -26.4974 C   0  0  0  0  0  0  0  0  0  0  0  0
  -14.5319  -13.3806  -27.5705 C   0  0  0  0  0  0  0  0  0  0  0  0
  -14.4497  -14.7786  -27.6753 C   0  0  0  0  0  0  0  0  0  0  0  0
  -13.7672  -15.3215  -28.7112 F   0  0  0  0  0  0  0  0  0  0  0  0
  -16.4471  -13.0253  -24.4970 F   0  0  0  0  0  0  0  0  0  0  0  0
  -14.5888  -19.2467  -28.0281 H   0  0  0  0  0  0  0  0  0  0  0  0
  -15.7817  -19.6740  -23.8878 H   0  0  0  0  0  0  0  0  0  0  0  0
  -14.1798  -21.5721  -28.1603 H   0  0  0  0  0  0  0  0  0  0  0  0
  -15.3751  -22.0765  -24.0338 H   0  0  0  0  0  0  0  0  0  0  0  0
  -16.5549  -17.8757  -24.1611 H   0  0  0  0  0  0  0  0  0  0  0  0
  -12.3598  -23.1996  -25.7401 H   0  0  0  0  0  0  0  0  0  0  0  0
  -12.8482  -24.8588  -25.4385 H   0  0  0  0  0  0  0  0  0  0  0  0
  -13.3031  -23.5809  -24.3146 H   0  0  0  0  0  0  0  0  0  0  0  0
  -13.9695  -24.8907  -27.4909 H   0  0  0  0  0  0  0  0  0  0  0  0
  -16.5568  -24.0005  -26.2803 H   0  0  0  0  0  0  0  0  0  0  0  0
  -15.5728  -25.3751  -25.9377 H   0  0  0  0  0  0  0  0  0  0  0  0
  -15.9091  -24.1796  -24.6387 H   0  0  0  0  0  0  0  0  0  0  0  0
  -15.2654  -11.7257  -26.4263 H   0  0  0  0  0  0  0  0  0  0  0  0
  -14.0659  -12.7616  -28.3189 H   0  0  0  0  0  0  0  0  0  0  0  0
  1  2  2  0
  1  3  1  0
  1 11  1  0
  2  4  1  0
  2 24  1  0
  3  5  2  0
  3 25  1  0
  4  7  2  0
  4 26  1  0
  5  7  1  0
  5 27  1  0
  6 11  2  0
  6 16  1  0
  7  8  1  0
  8 13  1  0
  8 14  1  0
  8 15  1  0
  9 10  1  0
  9 12  2  0
  9 17  1  0
 10 11  1  0
 10 28  1  0
 13 29  1  0
 13 30  1  0
 13 31  1  0
 14 32  1  0
 15 33  1  0
 15 34  1  0
 15 35  1  0
 16 17  2  0
 16 21  1  0
 17 18  1  0
 18 19  2  0
 18 23  1  0
 19 20  1  0
 19 36  1  0
 20 21  2  0
 20 37  1  0
 21 22  1  0
M  END
>  <s_m_entry_id>  (1) 
500

>  <Name>  (1) 
5l

>  <IC50[nM]>  (1) 
40

>  <s_m_Source_Path>  (1) 
/projects/mai/users/kmzp800_harry/pmx_colab/docking_jobs/tnks2

>  <s_m_Source_File>  (1) 
tnks2_lig.sdf

>  <i_m_Source_File_Index>  (1) 
22

>  <s_m_job_name>  (1) 
glide-dock_SP_tnks_mcs_fallabck

>  <r_i_docking_score>  (1) 
-10.2211299940814

>  <r_i_glide_gscore>  (1) 
-10.2211299940814

>  <r_i_glide_emodel>  (1) 
-52.5130513074557

>  <index_string>  (1) 
3:0:0

$$$$
