1:0:0
     RDKit          3D

 48 51  0  0  1  0  0  0  0  0999 V2000
   -3.9588   -2.0610   13.0622 C   0  0  0  0  0  0  0  0  0  0  0  0
   -3.4617   -0.8060   13.5133 O   0  0  0  0  0  0  0  0  0  0  0  0
   -2.0987   -0.7434   13.6648 C   0  0  0  0  0  0  0  0  0  0  0  0
   -1.3913    0.1686   12.8594 C   0  0  0  0  0  0  0  0  0  0  0  0
    0.0076    0.2717   12.9505 C   0  0  0  0  0  0  0  0  0  0  0  0
    0.7220   -0.5215   13.8780 C   0  0  0  0  0  0  0  0  0  0  0  0
    2.1172   -0.4934   14.0384 N   0  0  0  0  0  0  0  0  0  0  0  0
    3.0564    0.5209   13.7989 C   0  0  0  0  0  0  0  0  0  0  0  0
    2.7702    1.5245   13.0172 N   0  0  0  0  0  0  0  0  0  0  0  0
    3.6976    2.5250   12.8289 C   0  0  0  0  0  0  0  0  0  0  0  0
    4.9369    2.5106   13.4114 C   0  0  0  0  0  0  0  0  0  0  0  0
    5.2238    1.4739   14.2388 N   0  0  0  0  0  0  0  0  0  0  0  0
    6.3281    1.2050   15.0176 C   0  0  0  0  0  0  0  0  0  0  0  0
    6.0300    0.0892   15.7486 C   0  0  0  0  0  0  0  0  0  0  0  0
    4.7740   -0.3960   15.4176 N   0  0  0  0  0  0  0  0  0  0  0  0
    4.3013    0.4329   14.4864 C   0  0  0  0  0  0  0  0  0  0  0  0
    3.2778    3.6572   11.9839 C   0  0  0  0  0  0  0  0  0  0  0  0
    3.2360    4.9671   12.5102 C   0  0  0  0  0  0  0  0  0  0  0  0
    2.8400    6.0587   11.7102 C   0  0  0  0  0  0  0  0  0  0  0  0
    2.5028    5.8665   10.3502 C   0  0  0  0  0  0  0  0  0  0  0  0
    2.5464    4.5549    9.8228 C   0  0  0  0  0  0  0  0  0  0  0  0
    2.9223    3.4647   10.6324 C   0  0  0  0  0  0  0  0  0  0  0  0
    2.0462    7.0095    9.4811 C   0  0  0  0  0  0  0  0  0  0  0  0
    1.3805    6.8050    8.4676 O   0  0  0  0  0  0  0  0  0  0  0  0
    2.4308    8.2431    9.8174 N   0  0  0  0  0  0  0  0  0  0  0  0
    0.0080   -1.4260   14.6913 C   0  0  0  0  0  0  0  0  0  0  0  0
   -1.4012   -1.5486   14.5992 C   0  0  0  0  0  0  0  0  0  0  0  0
   -2.1386   -2.3982   15.3945 O   0  0  0  0  0  0  0  0  0  0  0  0
   -1.4475   -3.3398   16.1989 C   0  0  0  0  0  0  0  0  0  0  0  0
   -4.9831   -1.9352   12.7125 H   0  0  0  0  0  0  0  0  0  0  0  0
   -3.3802   -2.4542   12.2259 H   0  0  0  0  0  0  0  0  0  0  0  0
   -3.9834   -2.8073   13.8562 H   0  0  0  0  0  0  0  0  0  0  0  0
   -1.9245    0.7765   12.1443 H   0  0  0  0  0  0  0  0  0  0  0  0
    0.5053    0.9576   12.2834 H   0  0  0  0  0  0  0  0  0  0  0  0
    2.4776   -1.1806   14.6870 H   0  0  0  0  0  0  0  0  0  0  0  0
    5.6831    3.2892   13.2873 H   0  0  0  0  0  0  0  0  0  0  0  0
    7.1828    1.8635   15.0172 H   0  0  0  0  0  0  0  0  0  0  0  0
    6.6291   -0.3958   16.5018 H   0  0  0  0  0  0  0  0  0  0  0  0
    3.5013    5.1380   13.5428 H   0  0  0  0  0  0  0  0  0  0  0  0
    2.8047    7.0442   12.1567 H   0  0  0  0  0  0  0  0  0  0  0  0
    2.2810    4.3770    8.7905 H   0  0  0  0  0  0  0  0  0  0  0  0
    2.9457    2.4686   10.2148 H   0  0  0  0  0  0  0  0  0  0  0  0
    2.1489    9.0155    9.2345 H   0  0  0  0  0  0  0  0  0  0  0  0
    2.9905    8.4473   10.6511 H   0  0  0  0  0  0  0  0  0  0  0  0
    0.5675   -2.0186   15.4001 H   0  0  0  0  0  0  0  0  0  0  0  0
   -2.1831   -4.0258   16.6173 H   0  0  0  0  0  0  0  0  0  0  0  0
   -0.7443   -3.9398   15.6176 H   0  0  0  0  0  0  0  0  0  0  0  0
   -0.9207   -2.8528   17.0190 H   0  0  0  0  0  0  0  0  0  0  0  0
  1  2  1  0
  1 30  1  0
  1 31  1  0
  1 32  1  0
  2  3  1  0
  3  4  2  0
  3 27  1  0
  4  5  1  0
  4 33  1  0
  5  6  2  0
  5 34  1  0
  6  7  1  0
  6 26  1  0
  7  8  1  0
  7 35  1  0
  8  9  2  0
  8 16  1  0
  9 10  1  0
 10 11  2  0
 10 17  1  0
 11 12  1  0
 11 36  1  0
 12 13  1  0
 12 16  1  0
 13 14  2  0
 13 37  1  0
 14 15  1  0
 14 38  1  0
 15 16  2  0
 17 18  2  0
 17 22  1  0
 18 19  1  0
 18 39  1  0
 19 20  2  0
 19 40  1  0
 20 21  1  0
 20 23  1  0
 21 22  2  0
 21 41  1  0
 22 42  1  0
 23 24  2  0
 23 25  1  0
 25 43  1  0
 25 44  1  0
 26 27  2  0
 26 45  1  0
 27 28  1  0
 28 29  1  0
 29 46  1  0
 29 47  1  0
 29 48  1  0
M  END
>  <s_m_entry_id>  (1) 
681

>  <IC50[nM]>  (1) 
17.7

>  <s_m_Source_Path>  (1) 
/projects/mai/users/kmzp800_harry/pmx_colab/docking_jobs/syk

>  <s_m_Source_File>  (1) 
tnks2_lig.sdf

>  <i_m_Source_File_Index>  (1) 
2

>  <s_m_job_name>  (1) 
glide-dock_SP_tnks2_no_const

>  <r_i_docking_score>  (1) 
-7.23872732035016

>  <r_i_glide_gscore>  (1) 
-7.23872732035016

>  <r_i_glide_emodel>  (1) 
-66.503847758766

>  <index_string>  (1) 
1:0:0

$$$$
