25:0:0
     RDKit          3D

 37 39  0  0  1  0  0  0  0  0999 V2000
  -14.4482  -14.7422  -27.6368 C   0  0  0  0  0  0  0  0  0  0  0  0
  -15.0601  -15.5738  -26.6779 C   0  0  0  0  0  0  0  0  0  0  0  0
  -14.5254  -13.3427  -27.5141 C   0  0  0  0  0  0  0  0  0  0  0  0
  -15.8088  -14.9951  -25.6262 C   0  0  0  0  0  0  0  0  0  0  0  0
  -14.8482  -16.9600  -26.7386 N   0  0  0  0  0  0  0  0  0  0  0  0
  -15.2482  -12.7727  -26.4498 C   0  0  0  0  0  0  0  0  0  0  0  0
  -15.9122  -13.5928  -25.5151 C   0  0  0  0  0  0  0  0  0  0  0  0
  -16.4482  -15.9278  -24.6423 C   0  0  0  0  0  0  0  0  0  0  0  0
  -16.1019  -17.2085  -24.7669 N   0  0  0  0  0  0  0  0  0  0  0  0
  -17.2342  -15.5727  -23.7771 O   0  0  0  0  0  0  0  0  0  0  0  0
  -15.3299  -17.7320  -25.8050 C   0  0  0  0  0  0  0  0  0  0  0  0
  -15.1327  -19.1979  -25.8515 C   0  0  0  0  0  0  0  0  0  0  0  0
  -14.8482  -19.8308  -27.0744 C   0  0  0  0  0  0  0  0  0  0  0  0
  -14.6602  -21.2163  -27.1224 C   0  0  0  0  0  0  0  0  0  0  0  0
  -14.7303  -21.9894  -25.9477 C   0  0  0  0  0  0  0  0  0  0  0  0
  -15.0527  -21.3557  -24.7287 C   0  0  0  0  0  0  0  0  0  0  0  0
  -15.2482  -19.9685  -24.6767 C   0  0  0  0  0  0  0  0  0  0  0  0
  -14.4271  -23.4782  -25.9396 C   0  0  0  0  0  0  0  0  0  0  0  0
  -15.5804  -24.1814  -25.5386 O   0  0  0  0  0  0  0  0  0  0  0  0
  -13.2482  -23.7240  -24.9795 C   0  0  0  0  0  0  0  0  0  0  0  0
  -14.0760  -24.0860  -27.3047 C   0  0  0  0  0  0  0  0  0  0  0  0
  -13.8749  -15.1774  -28.4424 H   0  0  0  0  0  0  0  0  0  0  0  0
  -14.0283  -12.7021  -28.2294 H   0  0  0  0  0  0  0  0  0  0  0  0
  -15.2918  -11.6984  -26.3619 H   0  0  0  0  0  0  0  0  0  0  0  0
  -16.4737  -13.1465  -24.7061 H   0  0  0  0  0  0  0  0  0  0  0  0
  -16.5424  -17.8558  -24.1255 H   0  0  0  0  0  0  0  0  0  0  0  0
  -14.7606  -19.2602  -27.9874 H   0  0  0  0  0  0  0  0  0  0  0  0
  -14.4235  -21.6476  -28.0731 H   0  0  0  0  0  0  0  0  0  0  0  0
  -15.1293  -21.9261  -23.8153 H   0  0  0  0  0  0  0  0  0  0  0  0
  -15.4824  -19.5153  -23.7248 H   0  0  0  0  0  0  0  0  0  0  0  0
  -15.8225  -23.8945  -24.6709 H   0  0  0  0  0  0  0  0  0  0  0  0
  -12.4252  -23.0521  -25.2174 H   0  0  0  0  0  0  0  0  0  0  0  0
  -12.8482  -24.7357  -25.0518 H   0  0  0  0  0  0  0  0  0  0  0  0
  -13.5158  -23.5505  -23.9386 H   0  0  0  0  0  0  0  0  0  0  0  0
  -13.1786  -23.6304  -27.7240 H   0  0  0  0  0  0  0  0  0  0  0  0
  -13.8804  -25.1559  -27.2208 H   0  0  0  0  0  0  0  0  0  0  0  0
  -14.8935  -23.9698  -28.0160 H   0  0  0  0  0  0  0  0  0  0  0  0
  1  2  2  0
  1  3  1  0
  1 22  1  0
  2  4  1  0
  2  5  1  0
  3  6  2  0
  3 23  1  0
  4  7  2  0
  4  8  1  0
  5 11  2  0
  6  7  1  0
  6 24  1  0
  7 25  1  0
  8  9  1  0
  8 10  2  0
  9 11  1  0
  9 26  1  0
 11 12  1  0
 12 13  2  0
 12 17  1  0
 13 14  1  0
 13 27  1  0
 14 15  2  0
 14 28  1  0
 15 16  1  0
 15 18  1  0
 16 17  2  0
 16 29  1  0
 17 30  1  0
 18 19  1  0
 18 20  1  0
 18 21  1  0
 19 31  1  0
 20 32  1  0
 20 33  1  0
 20 34  1  0
 21 35  1  0
 21 36  1  0
 21 37  1  0
M  END
>  <s_m_entry_id>  (1) 
440

>  <Name>  (1) 
5a

>  <IC50[nM]>  (1) 
13

>  <s_m_Source_Path>  (1) 
/projects/mai/users/kmzp800_harry/pmx_colab/docking_jobs/tnks2

>  <s_m_Source_File>  (1) 
tnks2_lig.sdf

>  <i_m_Source_File_Index>  (1) 
26

>  <s_m_job_name>  (1) 
glide-dock_SP_tnks2_no_cons

>  <r_i_docking_score>  (1) 
-10.5329733422287

>  <r_i_glide_gscore>  (1) 
-10.5329733422287

>  <r_i_glide_emodel>  (1) 
-65.7041614979281

>  <index_string>  (1) 
25:0:0

$$$$
