31:0:0
     RDKit          3D

 48 51  0  0  1  0  0  0  0  0999 V2000
   34.3878   34.7495   15.3178 C   0  0  0  0  0  0  0  0  0  0  0  0
   34.5431   35.0129   21.1772 C   0  0  0  0  0  0  0  0  0  0  0  0
   35.2742   34.9253   16.3893 C   0  0  0  0  0  0  0  0  0  0  0  0
   34.0319   38.9912   23.7327 C   0  0  0  0  0  0  0  0  0  0  0  0
   34.8233   37.8511   21.4499 C   0  0  0  0  0  0  0  0  0  0  0  0
   35.2755   37.1657   20.2478 C   0  0  0  0  0  0  0  0  0  0  0  0
   32.5511   35.3625   16.7656 C   0  0  0  0  0  0  0  0  0  0  0  0
   33.3981   35.3826   17.8800 C   0  0  0  0  0  0  0  0  0  0  0  0
   34.3204   37.0683   22.5079 C   0  0  0  0  0  0  0  0  0  0  0  0
   34.8641   39.2498   21.6263 C   0  0  0  0  0  0  0  0  0  0  0  0
   35.1710   35.8142   20.1283 C   0  0  0  0  0  0  0  0  0  0  0  0
   34.7743   35.1639   17.6924 C   0  0  0  0  0  0  0  0  0  0  0  0
   33.6870   34.8531   23.4522 C   0  0  0  0  0  0  0  0  0  0  0  0
   36.6027   34.7740   16.1779 F   0  0  0  0  0  0  0  0  0  0  0  0
   35.6933   35.1489   18.8881 C   0  0  0  0  0  0  0  0  0  0  0  0
   34.4734   39.8218   22.7869 N   0  0  0  0  0  0  0  0  0  0  0  0
   34.3024   33.8186   21.0074 O   0  0  0  0  0  0  0  0  0  0  0  0
   34.2319   35.6485   22.3400 N   0  0  0  0  0  0  0  0  0  0  0  0
   33.9304   37.6686   23.6439 N   0  0  0  0  0  0  0  0  0  0  0  0
   33.6566   39.5505   24.9301 N   0  0  0  0  0  0  0  0  0  0  0  0
   34.7558   34.4921   14.3373 H   0  0  0  0  0  0  0  0  0  0  0  0
   35.7216   37.7785   19.4672 H   0  0  0  0  0  0  0  0  0  0  0  0
   31.5019   35.5456   16.9203 H   0  0  0  0  0  0  0  0  0  0  0  0
   32.9619   35.5542   18.8548 H   0  0  0  0  0  0  0  0  0  0  0  0
   35.2254   39.9065   20.8482 H   0  0  0  0  0  0  0  0  0  0  0  0
   34.0473   35.2135   24.4147 H   0  0  0  0  0  0  0  0  0  0  0  0
   32.5993   34.9152   23.4568 H   0  0  0  0  0  0  0  0  0  0  0  0
   33.9571   33.7972   23.4158 H   0  0  0  0  0  0  0  0  0  0  0  0
   33.7521   40.5565   25.0304 H   0  0  0  0  0  0  0  0  0  0  0  0
   35.7523   34.0982   19.1339 H   0  0  0  0  0  0  0  0  0  0  0  0
   36.6804   35.5493   18.6313 H   0  0  0  0  0  0  0  0  0  0  0  0
   33.0210   34.9937   15.4956 C   0  0  0  0  0  0  0  0  0  0  0  0
   32.1634   34.8888   14.4523 F   0  0  0  0  0  0  0  0  0  0  0  0
   33.4203   38.1023   28.4351 C   0  0  0  0  0  0  0  0  0  0  0  0
   34.0088   38.9374   27.2883 C   0  0  0  0  0  0  0  0  0  0  0  0
   33.1314   38.7760   26.0429 C   0  0  0  0  0  0  0  0  0  0  0  0
   31.6868   39.1764   26.3482 C   0  0  0  0  0  0  0  0  0  0  0  0
   31.1596   38.3289   27.5187 C   0  0  0  0  0  0  0  0  0  0  0  0
   32.0290   38.4881   28.6859 O   0  0  0  0  0  0  0  0  0  0  0  0
   35.0174   38.5922   27.0807 H   0  0  0  0  0  0  0  0  0  0  0  0
   34.0712   39.9863   27.5822 H   0  0  0  0  0  0  0  0  0  0  0  0
   33.1180   37.7137   25.8071 H   0  0  0  0  0  0  0  0  0  0  0  0
   31.6306   40.2403   26.6026 H   0  0  0  0  0  0  0  0  0  0  0  0
   31.0557   39.0137   25.4812 H   0  0  0  0  0  0  0  0  0  0  0  0
   31.1197   37.2692   27.2551 H   0  0  0  0  0  0  0  0  0  0  0  0
   30.1658   38.6448   27.8071 H   0  0  0  0  0  0  0  0  0  0  0  0
   33.4393   37.0327   28.1949 H   0  0  0  0  0  0  0  0  0  0  0  0
   33.9767   38.2529   29.3472 H   0  0  0  0  0  0  0  0  0  0  0  0
  1  3  2  0
  1 21  1  0
  1 32  1  0
  2 11  1  0
  2 17  2  0
  2 18  1  0
  3 12  1  0
  3 14  1  0
  4 16  1  0
  4 19  2  0
  4 20  1  0
  5  6  1  0
  5  9  2  0
  5 10  1  0
  6 11  2  0
  6 22  1  0
  7  8  1  0
  7 23  1  0
  7 32  2  0
  8 12  2  0
  8 24  1  0
  9 18  1  0
  9 19  1  0
 10 16  2  0
 10 25  1  0
 11 15  1  0
 12 15  1  0
 13 18  1  0
 13 26  1  0
 13 27  1  0
 13 28  1  0
 15 30  1  0
 15 31  1  0
 20 29  1  0
 20 36  1  0
 32 33  1  0
 34 35  1  0
 34 39  1  0
 34 47  1  0
 34 48  1  0
 35 36  1  0
 35 40  1  0
 35 41  1  0
 36 37  1  0
 36 42  1  0
 37 38  1  0
 37 43  1  0
 37 44  1  0
 38 39  1  0
 38 45  1  0
 38 46  1  0
M  END
>  <s_m_entry_id>  (1) 
849

>  <s_m_Source_Path>  (1) 
/projects/mai/users/kmzp800_harry/pmx_colab/docking_jobs/p38/glide-dock_SP_p38_mcs_docking_2

>  <s_m_Source_File>  (1) 
glide-dock_SP_p38_mcs_docking_2_pv.maegz

>  <i_m_Source_File_Index>  (1) 
33

>  <s_pdb_PDB_TITLE>  (1) 
MX MODEL

>  <r_i_docking_score>  (1) 
-5.98859861731025

>  <r_i_glide_gscore>  (1) 
-5.98859861731025

>  <r_i_glide_emodel>  (1) 
-28.7474190027841

>  <index_string>  (1) 
31:0:0

$$$$
