27:0:0
     RDKit          3D

 46 49  0  0  1  0  0  0  0  0999 V2000
   32.7839   35.3925   18.9350 F   0  0  0  0  0  0  0  0  0  0  0  0
   33.5706   35.2516   17.8421 C   0  0  0  0  0  0  0  0  0  0  0  0
   32.9522   35.1493   16.5882 C   0  0  0  0  0  0  0  0  0  0  0  0
   33.7128   34.8994   15.4403 C   0  0  0  0  0  0  0  0  0  0  0  0
   35.1148   34.9027   15.5269 C   0  0  0  0  0  0  0  0  0  0  0  0
   35.7498   35.1491   16.7465 C   0  0  0  0  0  0  0  0  0  0  0  0
   34.9874   35.2369   17.9193 C   0  0  0  0  0  0  0  0  0  0  0  0
   35.6989   35.2018   19.0832 O   0  0  0  0  0  0  0  0  0  0  0  0
   35.1754   35.8164   20.1638 C   0  0  0  0  0  0  0  0  0  0  0  0
   35.2658   37.1554   20.2697 C   0  0  0  0  0  0  0  0  0  0  0  0
   34.5520   34.9906   21.1999 C   0  0  0  0  0  0  0  0  0  0  0  0
   34.3711   33.7877   21.0197 O   0  0  0  0  0  0  0  0  0  0  0  0
   34.1772   35.6226   22.3478 N   0  0  0  0  0  0  0  0  0  0  0  0
   33.6117   34.8414   23.4625 C   0  0  0  0  0  0  0  0  0  0  0  0
   34.2757   37.0410   22.5244 C   0  0  0  0  0  0  0  0  0  0  0  0
   34.7939   37.8266   21.4720 C   0  0  0  0  0  0  0  0  0  0  0  0
   33.8845   37.6382   23.6693 N   0  0  0  0  0  0  0  0  0  0  0  0
   33.9985   38.9614   23.7608 C   0  0  0  0  0  0  0  0  0  0  0  0
   34.4663   39.7894   22.8267 N   0  0  0  0  0  0  0  0  0  0  0  0
   34.8579   39.2188   21.6686 C   0  0  0  0  0  0  0  0  0  0  0  0
   33.6012   39.5493   24.9390 N   0  0  0  0  0  0  0  0  0  0  0  0
   33.0592   38.8804   26.1137 C   0  0  0  0  0  0  0  0  0  0  0  0
   33.0917   39.8310   27.3213 C   0  0  0  0  0  0  0  0  0  0  0  0
   32.4605   39.1616   28.5528 C   0  0  0  0  0  0  0  0  0  0  0  0
   31.1294   38.7485   28.2542 O   0  0  0  0  0  0  0  0  0  0  0  0
   31.0646   37.7888   27.2057 C   0  0  0  0  0  0  0  0  0  0  0  0
   31.6113   38.3994   25.9031 C   0  0  0  0  0  0  0  0  0  0  0  0
   31.8761   35.1495   16.5308 H   0  0  0  0  0  0  0  0  0  0  0  0
   33.2207   34.7495   14.4944 H   0  0  0  0  0  0  0  0  0  0  0  0
   35.7345   34.6895   14.6891 H   0  0  0  0  0  0  0  0  0  0  0  0
   36.8286   35.1504   16.7949 H   0  0  0  0  0  0  0  0  0  0  0  0
   35.7341   37.7471   19.4966 H   0  0  0  0  0  0  0  0  0  0  0  0
   32.5633   35.0969   23.6025 H   0  0  0  0  0  0  0  0  0  0  0  0
   33.6778   33.7577   23.3427 H   0  0  0  0  0  0  0  0  0  0  0  0
   34.1413   35.0731   24.3887 H   0  0  0  0  0  0  0  0  0  0  0  0
   35.2474   39.8718   20.9039 H   0  0  0  0  0  0  0  0  0  0  0  0
   33.7522   40.5476   25.0229 H   0  0  0  0  0  0  0  0  0  0  0  0
   33.6836   38.0115   26.3300 H   0  0  0  0  0  0  0  0  0  0  0  0
   34.1204   40.1236   27.5430 H   0  0  0  0  0  0  0  0  0  0  0  0
   32.5524   40.7479   27.0895 H   0  0  0  0  0  0  0  0  0  0  0  0
   33.0526   38.3046   28.8815 H   0  0  0  0  0  0  0  0  0  0  0  0
   32.4216   39.8670   29.3830 H   0  0  0  0  0  0  0  0  0  0  0  0
   31.6262   36.8948   27.4787 H   0  0  0  0  0  0  0  0  0  0  0  0
   30.0264   37.4899   27.0779 H   0  0  0  0  0  0  0  0  0  0  0  0
   30.9804   39.2278   25.5876 H   0  0  0  0  0  0  0  0  0  0  0  0
   31.5694   37.6511   25.1135 H   0  0  0  0  0  0  0  0  0  0  0  0
  1  2  1  0
  2  7  2  0
  2  3  1  0
  3  4  2  0
  3 28  1  0
  4  5  1  0
  4 29  1  0
  5  6  2  0
  5 30  1  0
  6  7  1  0
  6 31  1  0
  7  8  1  0
  8  9  1  0
  9 10  2  0
  9 11  1  0
 10 16  1  0
 10 32  1  0
 11 12  2  0
 11 13  1  0
 13 14  1  0
 13 15  1  0
 14 33  1  0
 14 34  1  0
 14 35  1  0
 15 16  2  0
 15 17  1  0
 16 20  1  0
 17 18  2  0
 18 19  1  0
 18 21  1  0
 19 20  2  0
 20 36  1  0
 21 22  1  0
 21 37  1  0
 22 27  1  0
 22 23  1  0
 22 38  1  0
 23 24  1  0
 23 39  1  0
 23 40  1  0
 24 25  1  0
 24 41  1  0
 24 42  1  0
 25 26  1  0
 26 27  1  0
 26 43  1  0
 26 44  1  0
 27 45  1  0
 27 46  1  0
M  END
>  <s_m_entry_id>  (1) 
282

>  <i_f3d_flags>  (1) 
0

>  <r_lp_tautomer_probability>  (1) 
1

>  <r_epik_Ionization_Penalty>  (1) 
  0.0000

>  <r_epik_State_Penalty>  (1) 
  0.0000

>  <i_epik_Tot_Q>  (1) 
0

>  <s_m_job_name>  (1) 
glide-dock_SP_p38_core_cons_top_1

>  <r_i_docking_score>  (1) 
-6.20175720645377

>  <r_i_glide_gscore>  (1) 
-6.20175720645377

>  <r_i_glide_emodel>  (1) 
-43.0472333627614

>  <index_string>  (1) 
27:0:0

$$$$
