31:0:0
     RDKit          3D

 64 68  0  0  1  0  0  0  0  0999 V2000
   -4.8003   -1.3972   15.6174 C   0  0  0  0  0  0  0  0  0  0  0  0
   -4.0317   -2.4114   14.7517 C   0  0  0  0  0  0  0  0  0  0  0  0
   -4.3827   -3.8244   15.2744 C   0  0  0  0  0  0  0  0  0  0  0  0
   -4.5098   -2.3195   13.2889 C   0  0  0  0  0  0  0  0  0  0  0  0
   -2.5285   -2.1106   14.8353 C   0  0  0  0  0  0  0  0  0  0  0  0
   -1.9291   -1.0740   14.0776 C   0  0  0  0  0  0  0  0  0  0  0  0
   -0.5551   -0.7985   14.2076 C   0  0  0  0  0  0  0  0  0  0  0  0
    0.2456   -1.5617   15.0864 C   0  0  0  0  0  0  0  0  0  0  0  0
    1.6136   -1.3438   15.3033 N   0  0  0  0  0  0  0  0  0  0  0  0
    2.5217   -0.4334   14.7295 C   0  0  0  0  0  0  0  0  0  0  0  0
    2.1830    0.3746   13.7587 N   0  0  0  0  0  0  0  0  0  0  0  0
    3.1140    1.2453   13.2201 C   0  0  0  0  0  0  0  0  0  0  0  0
    4.4149    1.2814   13.6708 C   0  0  0  0  0  0  0  0  0  0  0  0
    4.7512    0.4879   14.7214 N   0  0  0  0  0  0  0  0  0  0  0  0
    5.9023    0.3784   15.4755 C   0  0  0  0  0  0  0  0  0  0  0  0
    5.6018   -0.5145   16.4817 C   0  0  0  0  0  0  0  0  0  0  0  0
    4.3601   -1.0642   16.3205 N   0  0  0  0  0  0  0  0  0  0  0  0
    3.8247   -0.4135   15.2926 C   0  0  0  0  0  0  0  0  0  0  0  0
    2.6429    2.1595   12.1449 C   0  0  0  0  0  0  0  0  0  0  0  0
    3.5506    2.6567   11.1722 C   0  0  0  0  0  0  0  0  0  0  0  0
    3.1425    3.4914   10.1199 C   0  0  0  0  0  0  0  0  0  0  0  0
    1.7921    3.8588   10.0395 C   0  0  0  0  0  0  0  0  0  0  0  0
    0.8708    3.3940   11.0090 C   0  0  0  0  0  0  0  0  0  0  0  0
   -0.4706    3.8253   10.9235 N   0  0  0  0  0  0  0  0  0  0  0  0
   -1.5779    3.1358   11.2481 C   0  0  0  0  0  0  0  0  0  0  0  0
   -1.6985    1.9135   11.1554 O   0  0  0  0  0  0  0  0  0  0  0  0
   -2.7319    3.9959   11.6732 C   0  0  0  0  0  0  0  0  0  0  0  0
   -2.5601    4.9183   12.7294 C   0  0  0  0  0  0  0  0  0  0  0  0
   -3.6343    5.7197   13.1591 C   0  0  0  0  0  0  0  0  0  0  0  0
   -4.8949    5.6279   12.5306 C   0  0  0  0  0  0  0  0  0  0  0  0
   -5.0627    4.7118   11.4665 C   0  0  0  0  0  0  0  0  0  0  0  0
   -3.9925    3.8964   11.0464 C   0  0  0  0  0  0  0  0  0  0  0  0
   -6.0362    6.4938   12.9888 C   0  0  0  0  0  0  0  0  0  0  0  0
   -5.8033    7.4235   13.7898 O   0  0  0  0  0  0  0  0  0  0  0  0
   -7.1864    6.2613   12.5505 O   0  0  0  0  0  0  0  0  0  0  0  0
    1.2925    2.5532   12.0680 C   0  0  0  0  0  0  0  0  0  0  0  0
   -0.3513   -2.6053   15.8149 C   0  0  0  0  0  0  0  0  0  0  0  0
   -1.7162   -2.8716   15.6946 C   0  0  0  0  0  0  0  0  0  0  0  0
   -5.8714   -1.5931   15.5994 H   0  0  0  0  0  0  0  0  0  0  0  0
   -4.6438   -0.3761   15.2806 H   0  0  0  0  0  0  0  0  0  0  0  0
   -4.4745   -1.4449   16.6623 H   0  0  0  0  0  0  0  0  0  0  0  0
   -3.8810   -4.6051   14.7063 H   0  0  0  0  0  0  0  0  0  0  0  0
   -4.1146   -3.9467   16.3258 H   0  0  0  0  0  0  0  0  0  0  0  0
   -5.4567   -4.0190   15.2062 H   0  0  0  0  0  0  0  0  0  0  0  0
   -3.9640   -3.0204   12.6541 H   0  0  0  0  0  0  0  0  0  0  0  0
   -5.5690   -2.5562   13.2032 H   0  0  0  0  0  0  0  0  0  0  0  0
   -4.3699   -1.3223   12.8714 H   0  0  0  0  0  0  0  0  0  0  0  0
   -2.5129   -0.4757   13.3950 H   0  0  0  0  0  0  0  0  0  0  0  0
   -0.1327    0.0028   13.6290 H   0  0  0  0  0  0  0  0  0  0  0  0
    2.0564   -2.0190   15.9163 H   0  0  0  0  0  0  0  0  0  0  0  0
    5.1868    1.9288   13.2804 H   0  0  0  0  0  0  0  0  0  0  0  0
    6.7713    0.9629   15.2151 H   0  0  0  0  0  0  0  0  0  0  0  0
    6.1670   -0.7943   17.3351 H   0  0  0  0  0  0  0  0  0  0  0  0
    4.5880    2.3706   11.2106 H   0  0  0  0  0  0  0  0  0  0  0  0
    3.8677    3.8396    9.3927 H   0  0  0  0  0  0  0  0  0  0  0  0
    1.4732    4.5145    9.2416 H   0  0  0  0  0  0  0  0  0  0  0  0
   -0.6092    4.7852   10.6562 H   0  0  0  0  0  0  0  0  0  0  0  0
   -1.6045    5.0059   13.2270 H   0  0  0  0  0  0  0  0  0  0  0  0
   -3.4880    6.4050   13.9806 H   0  0  0  0  0  0  0  0  0  0  0  0
   -6.0192    4.6232   10.9687 H   0  0  0  0  0  0  0  0  0  0  0  0
   -4.1416    3.2108   10.2245 H   0  0  0  0  0  0  0  0  0  0  0  0
    0.6011    2.1960   12.8280 H   0  0  0  0  0  0  0  0  0  0  0  0
    0.2377   -3.2167   16.4786 H   0  0  0  0  0  0  0  0  0  0  0  0
   -2.1267   -3.6706   16.2792 H   0  0  0  0  0  0  0  0  0  0  0  0
  1  2  1  0
  1 39  1  0
  1 40  1  0
  1 41  1  0
  2  3  1  0
  2  4  1  0
  2  5  1  0
  3 42  1  0
  3 43  1  0
  3 44  1  0
  4 45  1  0
  4 46  1  0
  4 47  1  0
  5  6  2  0
  5 38  1  0
  6  7  1  0
  6 48  1  0
  7  8  2  0
  7 49  1  0
  8  9  1  0
  8 37  1  0
  9 10  1  0
  9 50  1  0
 10 11  2  0
 10 18  1  0
 11 12  1  0
 12 13  2  0
 12 19  1  0
 13 14  1  0
 13 51  1  0
 14 15  1  0
 14 18  1  0
 15 16  2  0
 15 52  1  0
 16 17  1  0
 16 53  1  0
 17 18  2  0
 19 20  2  0
 19 36  1  0
 20 21  1  0
 20 54  1  0
 21 22  2  0
 21 55  1  0
 22 23  1  0
 22 56  1  0
 23 24  1  0
 23 36  2  0
 24 25  1  0
 24 57  1  0
 25 26  2  0
 25 27  1  0
 27 28  2  0
 27 32  1  0
 28 29  1  0
 28 58  1  0
 29 30  2  0
 29 59  1  0
 30 31  1  0
 30 33  1  0
 31 32  2  0
 31 60  1  0
 32 61  1  0
 33 34  2  0
 33 35  1  0
 36 62  1  0
 37 38  2  0
 37 63  1  0
 38 64  1  0
M  CHG  1  35  -1
M  END
>  <s_m_entry_id>  (1) 
1091

>  <IC50[nM]>  (1) 
65

>  <s_m_Source_Path>  (1) 
/projects/mai/users/kmzp800_harry/pmx_colab/docking_jobs/syk

>  <s_m_Source_File>  (1) 
tnks2_lig.sdf

>  <i_m_Source_File_Index>  (1) 
35

>  <s_m_job_name>  (1) 
glide-dock_SP_syk_mcs

>  <r_i_docking_score>  (1) 
-7.12052517887624

>  <r_i_glide_gscore>  (1) 
-7.12052517887624

>  <r_i_glide_emodel>  (1) 
-63.3182473354332

>  <index_string>  (1) 
31:0:0

$$$$
