35:0:0
     RDKit          3D

 67 71  0  0  1  0  0  0  0  0999 V2000
   -4.0229    3.8138    8.9088 C   0  0  0  0  0  0  0  0  0  0  0  0
   -3.3666    3.8709   10.1690 O   0  0  0  0  0  0  0  0  0  0  0  0
   -1.9862    3.9198   10.1772 C   0  0  0  0  0  0  0  0  0  0  0  0
   -1.1924    3.9081    9.0032 C   0  0  0  0  0  0  0  0  0  0  0  0
    0.2093    3.9694    9.0815 C   0  0  0  0  0  0  0  0  0  0  0  0
    0.8490    3.9953   10.3323 C   0  0  0  0  0  0  0  0  0  0  0  0
    2.2466    4.0543   10.3662 N   0  0  0  0  0  0  0  0  0  0  0  0
    3.1025    3.6011   11.3763 C   0  0  0  0  0  0  0  0  0  0  0  0
    2.7881    2.5292   12.0440 N   0  0  0  0  0  0  0  0  0  0  0  0
    3.6351    2.0539   13.0229 C   0  0  0  0  0  0  0  0  0  0  0  0
    4.8265    2.6800   13.3197 C   0  0  0  0  0  0  0  0  0  0  0  0
    5.1489    3.7974   12.6157 N   0  0  0  0  0  0  0  0  0  0  0  0
    6.2533    4.6258   12.6563 C   0  0  0  0  0  0  0  0  0  0  0  0
    6.0422    5.5960   11.7165 C   0  0  0  0  0  0  0  0  0  0  0  0
    4.8352    5.4048   11.0580 N   0  0  0  0  0  0  0  0  0  0  0  0
    4.3052    4.3129   11.6080 C   0  0  0  0  0  0  0  0  0  0  0  0
    3.1521    0.8614   13.7704 C   0  0  0  0  0  0  0  0  0  0  0  0
    4.0121    0.0966   14.6023 C   0  0  0  0  0  0  0  0  0  0  0  0
    3.4921   -0.9177   15.4250 C   0  0  0  0  0  0  0  0  0  0  0  0
    2.1245   -1.2382   15.3884 C   0  0  0  0  0  0  0  0  0  0  0  0
    1.2607   -0.5637   14.4963 C   0  0  0  0  0  0  0  0  0  0  0  0
    1.7846    0.4894   13.7177 C   0  0  0  0  0  0  0  0  0  0  0  0
   -0.1971   -0.9231   14.3715 C   0  0  0  0  0  0  0  0  0  0  0  0
   -0.9868   -0.1599   13.8139 O   0  0  0  0  0  0  0  0  0  0  0  0
   -0.5343   -2.1222   14.8748 N   0  0  0  0  0  0  0  0  0  0  0  0
   -1.7871   -2.7863   14.8372 C   0  0  0  0  0  0  0  0  0  0  0  0
   -2.0129   -3.7674   15.8189 C   0  0  0  0  0  0  0  0  0  0  0  0
   -3.1908   -4.5356   15.8082 C   0  0  0  0  0  0  0  0  0  0  0  0
   -4.1492   -4.3544   14.7885 C   0  0  0  0  0  0  0  0  0  0  0  0
   -3.9368   -3.3514   13.8138 C   0  0  0  0  0  0  0  0  0  0  0  0
   -2.7675   -2.5669   13.8406 C   0  0  0  0  0  0  0  0  0  0  0  0
   -5.3798   -5.2146   14.7663 C   0  0  0  0  0  0  0  0  0  0  0  0
   -5.9628   -5.4403   15.8262 O   0  0  0  0  0  0  0  0  0  0  0  0
   -5.6308   -5.7183   13.5354 N   0  0  0  0  0  0  0  0  0  0  0  0
   -6.7716   -6.8250   13.2517 S   0  0  0  0  0  0  0  0  0  0  0  0
   -6.7448   -7.9409   14.2069 O   0  0  0  0  0  0  0  0  0  0  0  0
   -6.7706   -7.1859   11.8262 O   0  0  0  0  0  0  0  0  0  0  0  0
   -8.3240   -5.9000   13.5362 C   0  0  0  0  0  0  0  0  0  0  0  0
    0.0685    4.0188   11.5077 C   0  0  0  0  0  0  0  0  0  0  0  0
   -1.3408    4.0050   11.4309 C   0  0  0  0  0  0  0  0  0  0  0  0
   -2.0987    4.0699   12.5724 O   0  0  0  0  0  0  0  0  0  0  0  0
   -1.9871    5.3118   13.2695 C   0  0  0  0  0  0  0  0  0  0  0  0
   -5.1019    3.8230    9.0640 H   0  0  0  0  0  0  0  0  0  0  0  0
   -3.7707    4.6701    8.2819 H   0  0  0  0  0  0  0  0  0  0  0  0
   -3.7824    2.8885    8.3883 H   0  0  0  0  0  0  0  0  0  0  0  0
   -1.6329    3.8538    8.0211 H   0  0  0  0  0  0  0  0  0  0  0  0
    0.7952    3.9674    8.1737 H   0  0  0  0  0  0  0  0  0  0  0  0
    2.6727    4.7226    9.7402 H   0  0  0  0  0  0  0  0  0  0  0  0
    5.5235    2.3639   14.0863 H   0  0  0  0  0  0  0  0  0  0  0  0
    7.0764    4.4242   13.3258 H   0  0  0  0  0  0  0  0  0  0  0  0
    6.6901    6.4125   11.4177 H   0  0  0  0  0  0  0  0  0  0  0  0
    5.0666    0.3177   14.6645 H   0  0  0  0  0  0  0  0  0  0  0  0
    4.1528   -1.4566   16.0881 H   0  0  0  0  0  0  0  0  0  0  0  0
    1.7675   -2.0231   16.0391 H   0  0  0  0  0  0  0  0  0  0  0  0
    1.1065    1.0364   13.0781 H   0  0  0  0  0  0  0  0  0  0  0  0
    0.1956   -2.6090   15.3738 H   0  0  0  0  0  0  0  0  0  0  0  0
   -1.2762   -3.9467   16.5894 H   0  0  0  0  0  0  0  0  0  0  0  0
   -3.3395   -5.2852   16.5729 H   0  0  0  0  0  0  0  0  0  0  0  0
   -4.6657   -3.1925   13.0328 H   0  0  0  0  0  0  0  0  0  0  0  0
   -2.6293   -1.8287   13.0667 H   0  0  0  0  0  0  0  0  0  0  0  0
   -9.1649   -6.5461   13.2916 H   0  0  0  0  0  0  0  0  0  0  0  0
   -8.3402   -5.0192   12.8957 H   0  0  0  0  0  0  0  0  0  0  0  0
   -8.3851   -5.6081   14.5843 H   0  0  0  0  0  0  0  0  0  0  0  0
    0.5451    4.0677   12.4752 H   0  0  0  0  0  0  0  0  0  0  0  0
   -2.5671    5.2862   14.1934 H   0  0  0  0  0  0  0  0  0  0  0  0
   -0.9562    5.5615   13.5408 H   0  0  0  0  0  0  0  0  0  0  0  0
   -2.3911    6.1178   12.6447 H   0  0  0  0  0  0  0  0  0  0  0  0
  1  2  1  0
  1 43  1  0
  1 44  1  0
  1 45  1  0
  2  3  1  0
  3  4  2  0
  3 40  1  0
  4  5  1  0
  4 46  1  0
  5  6  2  0
  5 47  1  0
  6  7  1  0
  6 39  1  0
  7  8  1  0
  7 48  1  0
  8  9  2  0
  8 16  1  0
  9 10  1  0
 10 11  2  0
 10 17  1  0
 11 12  1  0
 11 49  1  0
 12 13  1  0
 12 16  1  0
 13 14  2  0
 13 50  1  0
 14 15  1  0
 14 51  1  0
 15 16  2  0
 17 18  2  0
 17 22  1  0
 18 19  1  0
 18 52  1  0
 19 20  2  0
 19 53  1  0
 20 21  1  0
 20 54  1  0
 21 22  2  0
 21 23  1  0
 22 55  1  0
 23 24  2  0
 23 25  1  0
 25 26  1  0
 25 56  1  0
 26 27  2  0
 26 31  1  0
 27 28  1  0
 27 57  1  0
 28 29  2  0
 28 58  1  0
 29 30  1  0
 29 32  1  0
 30 31  2  0
 30 59  1  0
 31 60  1  0
 32 33  2  0
 32 34  1  0
 34 35  1  0
 35 36  2  0
 35 37  2  0
 35 38  1  0
 38 61  1  0
 38 62  1  0
 38 63  1  0
 39 40  2  0
 39 64  1  0
 40 41  1  0
 41 42  1  0
 42 65  1  0
 42 66  1  0
 42 67  1  0
M  CHG  1  34  -1
M  END
>  <s_m_entry_id>  (1) 
715

>  <IC50[nM]>  (1) 
2.2

>  <s_m_Source_Path>  (1) 
/projects/mai/users/kmzp800_harry/pmx_colab/docking_jobs/syk

>  <s_m_Source_File>  (1) 
tnks2_lig.sdf

>  <i_m_Source_File_Index>  (1) 
36

>  <s_m_job_name>  (1) 
glide-dock_SP_tnks2_no_const

>  <r_i_docking_score>  (1) 
-7.68461678132646

>  <r_i_glide_gscore>  (1) 
-7.68461678132646

>  <r_i_glide_emodel>  (1) 
-81.6360501048012

>  <index_string>  (1) 
35:0:0

$$$$
