40:0:0
     RDKit          3D

 51 55  0  0  1  0  0  0  0  0999 V2000
    0.5720    5.9037    8.8667 C   0  0  0  0  0  0  0  0  0  0  0  0
    1.7415    6.2248    9.6787 N   0  0  0  0  0  0  0  0  0  0  0  0
    1.9470    7.6299   10.0321 C   0  0  0  0  0  0  0  0  0  0  0  0
    1.0772    8.0719   11.2209 C   0  0  0  0  0  0  0  0  0  0  0  0
    1.2301    9.4599   11.4174 O   0  0  0  0  0  0  0  0  0  0  0  0
    2.3264    5.2053   10.4682 C   0  0  0  0  0  0  0  0  0  0  0  0
    3.6001    5.3764   11.0630 C   0  0  0  0  0  0  0  0  0  0  0  0
    4.2048    4.3353   11.7964 C   0  0  0  0  0  0  0  0  0  0  0  0
    3.5476    3.1014   11.9787 C   0  0  0  0  0  0  0  0  0  0  0  0
    4.2263    2.0858   12.6704 N   0  0  0  0  0  0  0  0  0  0  0  0
    3.7504    1.0700   13.5168 C   0  0  0  0  0  0  0  0  0  0  0  0
    2.5140    0.6481   13.4663 N   0  0  0  0  0  0  0  0  0  0  0  0
    2.0766   -0.3099   14.3656 C   0  0  0  0  0  0  0  0  0  0  0  0
    2.9086   -0.8335   15.3302 C   0  0  0  0  0  0  0  0  0  0  0  0
    4.1885   -0.3960   15.3733 N   0  0  0  0  0  0  0  0  0  0  0  0
    5.2301   -0.7161   16.2174 C   0  0  0  0  0  0  0  0  0  0  0  0
    6.3017    0.0040   15.7836 C   0  0  0  0  0  0  0  0  0  0  0  0
    5.9685    0.8049   14.7025 N   0  0  0  0  0  0  0  0  0  0  0  0
    4.6839    0.5543   14.4571 C   0  0  0  0  0  0  0  0  0  0  0  0
    0.6469   -0.7176   14.2888 C   0  0  0  0  0  0  0  0  0  0  0  0
   -0.2832   -0.0296   13.4672 C   0  0  0  0  0  0  0  0  0  0  0  0
   -1.6456   -0.3960   13.4174 C   0  0  0  0  0  0  0  0  0  0  0  0
   -2.1348   -1.4676   14.1976 C   0  0  0  0  0  0  0  0  0  0  0  0
   -3.3843   -2.1335   14.4183 C   0  0  0  0  0  0  0  0  0  0  0  0
   -3.2712   -3.1042   15.2928 N   0  0  0  0  0  0  0  0  0  0  0  0
   -1.9638   -3.1157   15.6569 N   0  0  0  0  0  0  0  0  0  0  0  0
   -1.2030   -2.1521   15.0174 C   0  0  0  0  0  0  0  0  0  0  0  0
    0.1543   -1.8015   15.0608 C   0  0  0  0  0  0  0  0  0  0  0  0
    2.2674    2.9349   11.4174 C   0  0  0  0  0  0  0  0  0  0  0  0
    1.6693    3.9665   10.6691 C   0  0  0  0  0  0  0  0  0  0  0  0
   -0.3049    5.7461    9.4955 H   0  0  0  0  0  0  0  0  0  0  0  0
    0.3458    6.7146    8.1739 H   0  0  0  0  0  0  0  0  0  0  0  0
    0.7440    5.0061    8.2715 H   0  0  0  0  0  0  0  0  0  0  0  0
    1.6866    8.2360    9.1638 H   0  0  0  0  0  0  0  0  0  0  0  0
    2.9965    7.8514   10.2174 H   0  0  0  0  0  0  0  0  0  0  0  0
    1.3701    7.5466   12.1310 H   0  0  0  0  0  0  0  0  0  0  0  0
    0.0244    7.8559   11.0394 H   0  0  0  0  0  0  0  0  0  0  0  0
    2.1654    9.6040   11.5968 H   0  0  0  0  0  0  0  0  0  0  0  0
    4.1516    6.2964   10.9500 H   0  0  0  0  0  0  0  0  0  0  0  0
    5.1871    4.4942   12.2175 H   0  0  0  0  0  0  0  0  0  0  0  0
    5.1876    2.3088   12.8914 H   0  0  0  0  0  0  0  0  0  0  0  0
    2.6250   -1.5547   16.0861 H   0  0  0  0  0  0  0  0  0  0  0  0
    5.1335   -1.4255   17.0174 H   0  0  0  0  0  0  0  0  0  0  0  0
    7.3039   -0.0056   16.1705 H   0  0  0  0  0  0  0  0  0  0  0  0
    0.0442    0.8015   12.8600 H   0  0  0  0  0  0  0  0  0  0  0  0
   -2.3162    0.1436   12.7658 H   0  0  0  0  0  0  0  0  0  0  0  0
   -4.3463   -1.9361   13.9718 H   0  0  0  0  0  0  0  0  0  0  0  0
   -1.6332   -3.7762   16.3509 H   0  0  0  0  0  0  0  0  0  0  0  0
    0.7921   -2.3883   15.7017 H   0  0  0  0  0  0  0  0  0  0  0  0
    1.7374    2.0040   11.5237 H   0  0  0  0  0  0  0  0  0  0  0  0
    0.6934    3.7749   10.2512 H   0  0  0  0  0  0  0  0  0  0  0  0
  1  2  1  0
  1 31  1  0
  1 32  1  0
  1 33  1  0
  2  3  1  0
  2  6  1  0
  3  4  1  0
  3 34  1  0
  3 35  1  0
  4  5  1  0
  4 36  1  0
  4 37  1  0
  5 38  1  0
  6  7  2  0
  6 30  1  0
  7  8  1  0
  7 39  1  0
  8  9  2  0
  8 40  1  0
  9 10  1  0
  9 29  1  0
 10 11  1  0
 10 41  1  0
 11 12  2  0
 11 19  1  0
 12 13  1  0
 13 14  2  0
 13 20  1  0
 14 15  1  0
 14 42  1  0
 15 16  1  0
 15 19  1  0
 16 17  2  0
 16 43  1  0
 17 18  1  0
 17 44  1  0
 18 19  2  0
 20 21  2  0
 20 28  1  0
 21 22  1  0
 21 45  1  0
 22 23  2  0
 22 46  1  0
 23 24  1  0
 23 27  1  0
 24 25  2  0
 24 47  1  0
 25 26  1  0
 26 27  1  0
 26 48  1  0
 27 28  2  0
 28 49  1  0
 29 30  2  0
 29 50  1  0
 30 51  1  0
M  END
>  <s_m_entry_id>  (1) 
720

>  <IC50[nM]>  (1) 
7.6

>  <s_m_Source_Path>  (1) 
/projects/mai/users/kmzp800_harry/pmx_colab/docking_jobs/syk

>  <s_m_Source_File>  (1) 
tnks2_lig.sdf

>  <i_m_Source_File_Index>  (1) 
41

>  <s_m_job_name>  (1) 
glide-dock_SP_tnks2_no_const

>  <r_i_docking_score>  (1) 
-6.14623375358769

>  <r_i_glide_gscore>  (1) 
-6.14623375358769

>  <r_i_glide_emodel>  (1) 
-61.7159682412994

>  <index_string>  (1) 
40:0:0

$$$$
