4:0:0
     RDKit          3D

 37 39  0  0  1  0  0  0  0  0999 V2000
  -14.4479  -14.7897  -27.6638 C   0  0  0  0  0  0  0  0  0  0  0  0
  -15.0369  -15.6069  -26.6822 C   0  0  0  0  0  0  0  0  0  0  0  0
  -14.5304  -13.3886  -27.5568 C   0  0  0  0  0  0  0  0  0  0  0  0
  -15.7616  -15.0202  -25.6171 C   0  0  0  0  0  0  0  0  0  0  0  0
  -14.8480  -16.9952  -26.7536 N   0  0  0  0  0  0  0  0  0  0  0  0
  -15.2434  -12.8064  -26.4947 C   0  0  0  0  0  0  0  0  0  0  0  0
  -15.8753  -13.6191  -25.5309 C   0  0  0  0  0  0  0  0  0  0  0  0
  -16.3767  -15.9412  -24.6148 C   0  0  0  0  0  0  0  0  0  0  0  0
  -16.1273  -17.2395  -24.8130 N   0  0  0  0  0  0  0  0  0  0  0  0
  -17.0671  -15.5727  -23.6709 O   0  0  0  0  0  0  0  0  0  0  0  0
  -15.3652  -17.7727  -25.8490 C   0  0  0  0  0  0  0  0  0  0  0  0
  -15.2062  -19.2508  -25.9302 C   0  0  0  0  0  0  0  0  0  0  0  0
  -14.7766  -19.8341  -27.1374 C   0  0  0  0  0  0  0  0  0  0  0  0
  -14.5457  -21.2054  -27.2186 C   0  0  0  0  0  0  0  0  0  0  0  0
  -14.7536  -22.0440  -26.1076 C   0  0  0  0  0  0  0  0  0  0  0  0
  -15.2290  -21.4649  -24.9088 C   0  0  0  0  0  0  0  0  0  0  0  0
  -15.4499  -20.0795  -24.8170 C   0  0  0  0  0  0  0  0  0  0  0  0
  -14.4539  -23.5357  -26.1745 C   0  0  0  0  0  0  0  0  0  0  0  0
  -14.1638  -23.9694  -27.5002 O   0  0  0  0  0  0  0  0  0  0  0  0
  -13.1774  -23.8215  -25.3580 C   0  0  0  0  0  0  0  0  0  0  0  0
  -15.6978  -24.3163  -25.7068 C   0  0  0  0  0  0  0  0  0  0  0  0
  -13.8980  -15.2315  -28.4804 H   0  0  0  0  0  0  0  0  0  0  0  0
  -14.0612  -12.7573  -28.2959 H   0  0  0  0  0  0  0  0  0  0  0  0
  -15.3084  -11.7300  -26.4300 H   0  0  0  0  0  0  0  0  0  0  0  0
  -16.4272  -13.1641  -24.7231 H   0  0  0  0  0  0  0  0  0  0  0  0
  -16.5572  -17.8839  -24.1700 H   0  0  0  0  0  0  0  0  0  0  0  0
  -14.5809  -19.2296  -28.0056 H   0  0  0  0  0  0  0  0  0  0  0  0
  -14.1641  -21.5730  -28.1535 H   0  0  0  0  0  0  0  0  0  0  0  0
  -15.4022  -22.0765  -24.0363 H   0  0  0  0  0  0  0  0  0  0  0  0
  -15.7971  -19.6743  -23.8818 H   0  0  0  0  0  0  0  0  0  0  0  0
  -13.9584  -24.8855  -27.4814 H   0  0  0  0  0  0  0  0  0  0  0  0
  -12.3562  -23.2091  -25.7271 H   0  0  0  0  0  0  0  0  0  0  0  0
  -12.8466  -24.8548  -25.3906 H   0  0  0  0  0  0  0  0  0  0  0  0
  -13.3202  -23.5565  -24.3138 H   0  0  0  0  0  0  0  0  0  0  0  0
  -16.5643  -24.0292  -26.3038 H   0  0  0  0  0  0  0  0  0  0  0  0
  -15.5927  -25.3850  -25.8658 H   0  0  0  0  0  0  0  0  0  0  0  0
  -15.9357  -24.1318  -24.6665 H   0  0  0  0  0  0  0  0  0  0  0  0
  1  2  2  0
  1  3  1  0
  1 22  1  0
  2  4  1  0
  2  5  1  0
  3  6  2  0
  3 23  1  0
  4  7  2  0
  4  8  1  0
  5 11  2  0
  6  7  1  0
  6 24  1  0
  7 25  1  0
  8  9  1  0
  8 10  2  0
  9 11  1  0
  9 26  1  0
 11 12  1  0
 12 13  2  0
 12 17  1  0
 13 14  1  0
 13 27  1  0
 14 15  2  0
 14 28  1  0
 15 16  1  0
 15 18  1  0
 16 17  2  0
 16 29  1  0
 17 30  1  0
 18 19  1  0
 18 20  1  0
 18 21  1  0
 19 31  1  0
 20 32  1  0
 20 33  1  0
 20 34  1  0
 21 35  1  0
 21 36  1  0
 21 37  1  0
M  END
>  <s_m_entry_id>  (1) 
501

>  <Name>  (1) 
5a

>  <IC50[nM]>  (1) 
13

>  <s_m_Source_Path>  (1) 
/projects/mai/users/kmzp800_harry/pmx_colab/docking_jobs/tnks2

>  <s_m_Source_File>  (1) 
tnks2_lig.sdf

>  <i_m_Source_File_Index>  (1) 
26

>  <s_m_job_name>  (1) 
glide-dock_SP_tnks_mcs_fallabck

>  <r_i_docking_score>  (1) 
-10.1861414453394

>  <r_i_glide_gscore>  (1) 
-10.1861414453394

>  <r_i_glide_emodel>  (1) 
-55.9150992316866

>  <index_string>  (1) 
4:0:0

$$$$
