21:0:0
     RDKit          3D

 45 47  0  0  1  0  0  0  0  0999 V2000
   43.2690   10.2680   16.7860 C   0  0  0  0  0  0  0  0  0  0  0  0
   42.0850    9.5440   16.6300 C   0  0  0  0  0  0  0  0  0  0  0  0
   40.9040   10.1830   16.2290 C   0  0  0  0  0  0  0  0  0  0  0  0
   40.9360   11.5610   15.9700 C   0  0  0  0  0  0  0  0  0  0  0  0
   42.1220   12.2950   16.1220 C   0  0  0  0  0  0  0  0  0  0  0  0
   43.2870   11.6420   16.5340 C   0  0  0  0  0  0  0  0  0  0  0  0
   39.6420    9.4320   16.0310 C   0  0  0  0  0  0  0  0  0  0  0  0
   39.2500    8.6380   14.5980 S   0  0  0  0  0  0  0  0  0  0  0  0
   37.7570    8.0530   15.0880 C   0  0  0  0  0  0  0  0  0  0  0  0
   37.5300    8.4600   16.4000 C   0  0  0  0  0  0  0  0  0  0  0  0
   38.5790    9.2540   16.9340 C   0  0  0  0  0  0  0  0  0  0  0  0
   38.4680   10.1530   18.6320 Br  0  0  0  0  0  0  0  0  0  0  0  0
   36.8660    7.2310   14.2550 C   0  0  0  0  0  0  0  0  0  0  0  0
   35.9060    7.7670   13.6410 O   0  0  0  0  0  0  0  0  0  0  0  0
   37.0700    5.8620   14.1360 O   0  0  0  0  0  0  0  0  0  0  0  0
   36.3520    8.1080   17.0720 O   0  0  0  0  0  0  0  0  0  0  0  0
   36.2700    7.0960   18.0680 C   0  0  0  0  0  0  0  0  0  0  0  0
   35.9100    5.7910   17.4450 C   0  0  0  0  0  0  0  0  0  0  0  0
   34.8180    5.6680   16.8310 O   0  0  0  0  0  0  0  0  0  0  0  0
   36.7970    4.7260   17.5020 O   0  0  0  0  0  0  0  0  0  0  0  0
   42.1620   13.7020   15.8670 N   0  0  0  0  0  0  0  0  0  0  0  0
   42.4140   14.2760   14.5530 C   0  0  0  0  0  0  0  0  0  0  0  0
   41.0810   14.5030   13.8240 C   0  0  0  0  0  0  0  0  0  0  0  0
   40.5830   15.9380   13.9920 C   0  0  0  0  0  0  0  0  0  0  0  0
   41.5830   16.9460   13.4090 C   0  0  0  0  0  0  0  0  0  0  0  0
   43.0450   16.4870   13.5050 C   0  0  0  0  0  0  0  0  0  0  0  0
   43.2580   15.5550   14.6930 C   0  0  0  0  0  0  0  0  0  0  0  0
   44.1880    9.7561   17.1075 H   0  0  0  0  0  0  0  0  0  0  0  0
   42.0794    8.4612   16.8238 H   0  0  0  0  0  0  0  0  0  0  0  0
   40.0190   12.0732   15.6433 H   0  0  0  0  0  0  0  0  0  0  0  0
   44.2199   12.2110   16.6601 H   0  0  0  0  0  0  0  0  0  0  0  0
   37.2432    7.0022   18.5721 H   0  0  0  0  0  0  0  0  0  0  0  0
   35.4949    7.3719   18.7981 H   0  0  0  0  0  0  0  0  0  0  0  0
   42.0038   14.3444   16.6565 H   0  0  0  0  0  0  0  0  0  0  0  0
   43.0002   13.5799   13.9351 H   0  0  0  0  0  0  0  0  0  0  0  0
   41.2210   14.2972   12.7525 H   0  0  0  0  0  0  0  0  0  0  0  0
   40.3316   13.8263   14.2604 H   0  0  0  0  0  0  0  0  0  0  0  0
   39.6199   16.0465   13.4717 H   0  0  0  0  0  0  0  0  0  0  0  0
   40.4693   16.1430   15.0667 H   0  0  0  0  0  0  0  0  0  0  0  0
   41.3376   17.1058   12.3487 H   0  0  0  0  0  0  0  0  0  0  0  0
   41.4947   17.8680   14.0024 H   0  0  0  0  0  0  0  0  0  0  0  0
   43.3149   15.9558   12.5803 H   0  0  0  0  0  0  0  0  0  0  0  0
   43.6787   17.3754   13.6436 H   0  0  0  0  0  0  0  0  0  0  0  0
   42.9674   16.0778   15.6162 H   0  0  0  0  0  0  0  0  0  0  0  0
   44.3200   15.2704   14.7273 H   0  0  0  0  0  0  0  0  0  0  0  0
  1  2  2  0
  1  6  1  0
  1 28  1  0
  2  3  1  0
  2 29  1  0
  3  4  2  0
  3  7  1  0
  4  5  1  0
  4 30  1  0
  5  6  2  0
  5 21  1  0
  6 31  1  0
  7 11  2  0
  7  8  1  0
  8  9  1  0
  9 10  2  0
  9 13  1  0
 10 11  1  0
 10 16  1  0
 11 12  1  0
 13 14  2  0
 13 15  1  0
 16 17  1  0
 17 18  1  0
 17 32  1  0
 17 33  1  0
 18 20  1  0
 18 19  2  0
 21 22  1  0
 21 34  1  0
 22 27  1  0
 22 23  1  0
 22 35  1  0
 23 24  1  0
 23 36  1  0
 23 37  1  0
 24 25  1  0
 24 38  1  0
 24 39  1  0
 25 26  1  0
 25 40  1  0
 25 41  1  0
 26 27  1  0
 26 42  1  0
 26 43  1  0
 27 44  1  0
 27 45  1  0
M  CHG  2  15  -1  20  -1
M  END
>  <s_m_entry_id>  (1) 
1367

>  <MODEL>  (1) 
1

>  <REMARK>  (1) 
 VINA RESULT:    -6.761      0.000      0.000
 INTER + INTRA:         -10.724
 INTER:                  -9.527
 INTRA:                  -1.197
 UNBOUND:                -1.197
  Name = /scratch/kmzp800/tmp6okf_05_/tmp2w3lo6px.pdb
  7 active torsions:
  status: ('A' for Active; 'I' for Inactive)
    1  A    between atoms: C3_3  and  C4_4
    2  A    between atoms: C5_6  and  C6_7
    3  A    between atoms: C7_10  and  O3_11
    4  A    between atoms: O3_11  and  C8_12
    5  A    between atoms: C8_12  and  C9_13
    6  A    between atoms: C12_19  and  N1_20
    7  A    between atoms: N1_20  and  C13_21
                            x       y       z     vdW  Elec       q    Type
                         _______ _______ _______ _____ _____    ______ ____

>  <TORSDO>  (1) 
F 7

>  <grid_id>  (1) 
ptp1b-prepared

>  <grid_path>  (1) 
ptp1b_vina.pdbqt

>  <grid_filename>  (1) 
ptp1b_vina.pdbqt

>  <docking_score>  (1) 
-6.761

>  <compound_name>  (1) 
lig_20670_2qbs

>  <index_string>  (1) 
21:0:0

>  <s_m_Source_Path>  (1) 
/projects/mai/users/kmzp800_harry/pmx_colab/docking_jobs/ptp1b/vina_prep

>  <s_m_Source_File>  (1) 
ptp1b_vina_naive_confs.sdf

>  <i_m_Source_File_Index>  (1) 
22

$$$$
