7:0:0
     RDKit          3D

 58 63  0  0  1  0  0  0  0  0999 V2000
    1.7950   -1.4010   15.4500 N   0  0  0  0  0  0  0  0  0  0  0  0
    2.6590   -0.4360   14.8330 C   0  0  0  0  0  0  0  0  0  0  0  0
    2.2360    0.3570   13.8040 N   0  0  0  0  0  0  0  0  0  0  0  0
    3.0540    1.2820   13.2080 C   0  0  0  0  0  0  0  0  0  0  0  0
    4.3770    1.4200   13.6710 C   0  0  0  0  0  0  0  0  0  0  0  0
    4.7700    0.6210   14.6910 N   0  0  0  0  0  0  0  0  0  0  0  0
    5.9560    0.5520   15.3100 C   0  0  0  0  0  0  0  0  0  0  0  0
    5.8290   -0.4340   16.2860 C   0  0  0  0  0  0  0  0  0  0  0  0
    4.5770   -0.9560   16.2610 N   0  0  0  0  0  0  0  0  0  0  0  0
    3.9720   -0.2780   15.2700 C   0  0  0  0  0  0  0  0  0  0  0  0
    2.5440    2.1130   12.0980 C   0  0  0  0  0  0  0  0  0  0  0  0
    3.4310    2.6550   11.1310 C   0  0  0  0  0  0  0  0  0  0  0  0
    2.9550    3.4480   10.0720 C   0  0  0  0  0  0  0  0  0  0  0  0
    1.5850    3.6760   10.0150 C   0  0  0  0  0  0  0  0  0  0  0  0
    0.8160    4.3920    9.1270 C   0  0  0  0  0  0  0  0  0  0  0  0
   -0.4700    4.2800    9.5470 N   0  0  0  0  0  0  0  0  0  0  0  0
   -0.5310    3.5340   10.6470 N   0  0  0  0  0  0  0  0  0  0  0  0
    0.7240    3.1630   10.9360 C   0  0  0  0  0  0  0  0  0  0  0  0
    1.1590    2.3740   11.9960 C   0  0  0  0  0  0  0  0  0  0  0  0
   -2.2570   -2.2890   14.4990 C   0  0  0  0  0  0  0  0  0  0  0  0
   -1.6530   -1.1290   13.9870 C   0  0  0  0  0  0  0  0  0  0  0  0
   -0.3240   -0.8260   14.2920 C   0  0  0  0  0  0  0  0  0  0  0  0
    0.4280   -1.6770   15.1150 C   0  0  0  0  0  0  0  0  0  0  0  0
   -0.1680   -2.8330   15.6260 C   0  0  0  0  0  0  0  0  0  0  0  0
   -1.4980   -3.1380   15.3210 C   0  0  0  0  0  0  0  0  0  0  0  0
   -6.0320   -4.1180   13.6700 C   0  0  0  0  0  0  0  0  0  0  0  0
   -7.5440   -4.0610   13.7190 C   0  0  0  0  0  0  0  0  0  0  0  0
   -5.5390   -3.0600   12.6760 C   0  0  0  0  0  0  0  0  0  0  0  0
   -4.0300   -2.8410   12.7930 C   0  0  0  0  0  0  0  0  0  0  0  0
   -3.6270   -2.6030   14.1850 N   0  0  0  0  0  0  0  0  0  0  0  0
   -4.6360   -2.6520   15.2430 C   0  0  0  0  0  0  0  0  0  0  0  0
   -5.4860   -3.9130   15.0930 C   0  0  0  0  0  0  0  0  0  0  0  0
   -5.6480   -5.3820   13.2200 O   0  0  0  0  0  0  0  0  0  0  0  0
    2.2006   -1.9560   16.2170 H   0  0  0  0  0  0  0  0  0  0  0  0
    5.0656    2.1500   13.2205 H   0  0  0  0  0  0  0  0  0  0  0  0
    6.8508    1.1533   15.0915 H   0  0  0  0  0  0  0  0  0  0  0  0
    6.6274   -0.7441   16.9762 H   0  0  0  0  0  0  0  0  0  0  0  0
    4.5089    2.4511   11.2116 H   0  0  0  0  0  0  0  0  0  0  0  0
    3.6380    3.8702    9.3202 H   0  0  0  0  0  0  0  0  0  0  0  0
    1.1737    4.9474    8.2475 H   0  0  0  0  0  0  0  0  0  0  0  0
   -1.3804    3.2885   11.1754 H   0  0  0  0  0  0  0  0  0  0  0  0
    0.4484    1.9668   12.7304 H   0  0  0  0  0  0  0  0  0  0  0  0
   -2.2316   -0.4532   13.3401 H   0  0  0  0  0  0  0  0  0  0  0  0
    0.1359    0.0862   13.8840 H   0  0  0  0  0  0  0  0  0  0  0  0
    0.4129   -3.5074   16.2724 H   0  0  0  0  0  0  0  0  0  0  0  0
   -1.9544   -4.0520   15.7289 H   0  0  0  0  0  0  0  0  0  0  0  0
   -7.8767   -4.0485   14.7674 H   0  0  0  0  0  0  0  0  0  0  0  0
   -7.8932   -3.1491   13.2126 H   0  0  0  0  0  0  0  0  0  0  0  0
   -7.9608   -4.9441   13.2126 H   0  0  0  0  0  0  0  0  0  0  0  0
   -5.7737   -3.3927   11.6541 H   0  0  0  0  0  0  0  0  0  0  0  0
   -6.0443   -2.1100   12.9043 H   0  0  0  0  0  0  0  0  0  0  0  0
   -3.5090   -3.7342   12.4178 H   0  0  0  0  0  0  0  0  0  0  0  0
   -3.7630   -1.9539   12.1999 H   0  0  0  0  0  0  0  0  0  0  0  0
   -4.1366   -2.6632   16.2230 H   0  0  0  0  0  0  0  0  0  0  0  0
   -5.2845   -1.7668   15.1663 H   0  0  0  0  0  0  0  0  0  0  0  0
   -6.3373   -3.8437   15.7861 H   0  0  0  0  0  0  0  0  0  0  0  0
   -4.8351   -4.7710   15.3169 H   0  0  0  0  0  0  0  0  0  0  0  0
   -5.4697   -5.9689   13.9971 H   0  0  0  0  0  0  0  0  0  0  0  0
  1  2  1  0
  1 23  1  0
  2 10  1  0
  2  3  2  0
  3  4  1  0
  4  5  2  0
  4 11  1  0
  5  6  1  0
  6 10  1  0
  6  7  1  0
  7  8  2  0
  8  9  1  0
  9 10  2  0
 11 12  2  0
 11 19  1  0
 12 13  1  0
 13 14  2  0
 14 18  1  0
 14 15  1  0
 15 16  2  0
 16 17  1  0
 17 18  1  0
 18 19  2  0
 20 25  1  0
 20 21  2  0
 20 30  1  0
 21 22  1  0
 22 23  2  0
 23 24  1  0
 24 25  2  0
 26 27  1  0
 26 32  1  0
 26 28  1  0
 26 33  1  0
 28 29  1  0
 29 30  1  0
 30 31  1  0
 31 32  1  0
  1 34  1  0
  5 35  1  0
  7 36  1  0
  8 37  1  0
 12 38  1  0
 13 39  1  0
 15 40  1  0
 17 41  1  0
 19 42  1  0
 21 43  1  0
 22 44  1  0
 24 45  1  0
 25 46  1  0
 27 47  1  0
 27 48  1  0
 27 49  1  0
 28 50  1  0
 28 51  1  0
 29 52  1  0
 29 53  1  0
 31 54  1  0
 31 55  1  0
 32 56  1  0
 32 57  1  0
 33 58  1  0
M  END
>  <s_m_entry_id>  (1) 
8

>  <MODEL>  (1) 
1

>  <REMARK>  (1) 
 VINA RESULT:    -9.966      0.000      0.000
 INTER + INTRA:         -12.424
 INTER:                 -12.005
 INTRA:                  -0.419
 UNBOUND:                -0.419
  Name = /scratch/kmzp800/tmp4orjtiox/tmpv7um8ta3.pdb
  5 active torsions:
  status: ('A' for Active; 'I' for Inactive)
    1  A    between atoms: O1_1  and  C1_2
    2  A    between atoms: C1_2  and  C2_3
    3  A    between atoms: N1_6  and  C5_7
    4  A    between atoms: C8_10  and  N2_11
    5  A    between atoms: C10_14  and  C11_15
                            x       y       z     vdW  Elec       q    Type
                         _______ _______ _______ _____ _____    ______ ____

>  <TORSDO>  (1) 
F 4

>  <grid_id>  (1) 
syk-prepared

>  <grid_path>  (1) 
syk_vina.pdbqt

>  <grid_filename>  (1) 
syk_vina.pdbqt

>  <docking_score>  (1) 
-9.966

>  <compound_name>  (1) 
CHEMBL3265031

>  <index_string>  (1) 
7:0:0

>  <s_m_Source_Path>  (1) 
/projects/mai/users/kmzp800_harry/pmx_colab/docking_jobs/syk/vina_prep/output

>  <s_m_Source_File>  (1) 
ptp1b_docked_conformers.sdf

>  <i_m_Source_File_Index>  (1) 
8

$$$$
