9:0:0
     RDKit          3D

 54 57  0  0  1  0  0  0  0  0999 V2000
   37.7521   35.5781   15.1845 F   0  0  0  0  0  0  0  0  0  0  0  0
   36.8304   35.5616   16.1707 C   0  0  0  0  0  0  0  0  0  0  0  0
   35.5130   35.1497   15.9025 C   0  0  0  0  0  0  0  0  0  0  0  0
   34.5593   35.1493   16.9370 C   0  0  0  0  0  0  0  0  0  0  0  0
   34.9045   35.5494   18.2443 C   0  0  0  0  0  0  0  0  0  0  0  0
   36.2445   35.9493   18.5104 C   0  0  0  0  0  0  0  0  0  0  0  0
   36.6567   36.3035   19.7510 F   0  0  0  0  0  0  0  0  0  0  0  0
   37.1953   35.9493   17.4705 C   0  0  0  0  0  0  0  0  0  0  0  0
   33.8854   35.5008   19.1694 O   0  0  0  0  0  0  0  0  0  0  0  0
   34.0333   36.0676   20.4037 C   0  0  0  0  0  0  0  0  0  0  0  0
   33.9960   37.4044   20.5529 C   0  0  0  0  0  0  0  0  0  0  0  0
   34.2124   35.1640   21.5406 C   0  0  0  0  0  0  0  0  0  0  0  0
   34.2490   33.9449   21.3760 O   0  0  0  0  0  0  0  0  0  0  0  0
   34.3573   35.7383   22.7724 N   0  0  0  0  0  0  0  0  0  0  0  0
   34.6542   34.8724   23.9354 C   0  0  0  0  0  0  0  0  0  0  0  0
   33.4312   34.5532   24.8319 C   0  0  0  0  0  0  0  0  0  0  0  0
   33.8435   33.5509   25.7425 O   0  0  0  0  0  0  0  0  0  0  0  0
   32.1725   34.0278   24.1086 C   0  0  0  0  0  0  0  0  0  0  0  0
   31.4889   35.0696   23.4396 O   0  0  0  0  0  0  0  0  0  0  0  0
   34.2548   37.1549   22.9904 C   0  0  0  0  0  0  0  0  0  0  0  0
   34.1172   38.0045   21.8720 C   0  0  0  0  0  0  0  0  0  0  0  0
   34.2896   37.6966   24.2265 N   0  0  0  0  0  0  0  0  0  0  0  0
   34.2097   39.0210   24.3455 C   0  0  0  0  0  0  0  0  0  0  0  0
   34.1522   39.9031   23.3495 N   0  0  0  0  0  0  0  0  0  0  0  0
   34.0932   39.3931   22.1026 C   0  0  0  0  0  0  0  0  0  0  0  0
   34.1521   39.5493   25.6172 N   0  0  0  0  0  0  0  0  0  0  0  0
   33.7748   38.7848   26.8000 C   0  0  0  0  0  0  0  0  0  0  0  0
   34.9517   37.9812   27.3813 C   0  0  0  0  0  0  0  0  0  0  0  0
   34.5096   37.2477   28.6567 C   0  0  0  0  0  0  0  0  0  0  0  0
   34.0163   38.1888   29.6062 O   0  0  0  0  0  0  0  0  0  0  0  0
   32.8654   38.8953   29.1495 C   0  0  0  0  0  0  0  0  0  0  0  0
   33.2103   39.7071   27.8903 C   0  0  0  0  0  0  0  0  0  0  0  0
   33.1624   35.4338   25.4170 H   0  0  0  0  0  0  0  0  0  0  0  0
   35.2301   34.8398   14.9077 H   0  0  0  0  0  0  0  0  0  0  0  0
   33.5443   34.8382   16.7288 H   0  0  0  0  0  0  0  0  0  0  0  0
   38.2122   36.2531   17.6742 H   0  0  0  0  0  0  0  0  0  0  0  0
   33.8558   38.0545   19.7025 H   0  0  0  0  0  0  0  0  0  0  0  0
   35.1241   33.9386   23.6209 H   0  0  0  0  0  0  0  0  0  0  0  0
   35.4241   35.3509   24.5433 H   0  0  0  0  0  0  0  0  0  0  0  0
   34.1121   32.7826   25.2500 H   0  0  0  0  0  0  0  0  0  0  0  0
   32.4240   33.2335   23.4050 H   0  0  0  0  0  0  0  0  0  0  0  0
   31.4781   33.6024   24.8342 H   0  0  0  0  0  0  0  0  0  0  0  0
   30.6578   34.7375   23.1312 H   0  0  0  0  0  0  0  0  0  0  0  0
   34.0074   40.0986   21.2889 H   0  0  0  0  0  0  0  0  0  0  0  0
   34.0496   40.5589   25.6708 H   0  0  0  0  0  0  0  0  0  0  0  0
   32.9871   38.0867   26.5105 H   0  0  0  0  0  0  0  0  0  0  0  0
   35.3261   37.2557   26.6590 H   0  0  0  0  0  0  0  0  0  0  0  0
   35.7831   38.6472   27.6136 H   0  0  0  0  0  0  0  0  0  0  0  0
   33.7432   36.5044   28.4303 H   0  0  0  0  0  0  0  0  0  0  0  0
   35.3519   36.7086   29.0919 H   0  0  0  0  0  0  0  0  0  0  0  0
   32.0520   38.1960   28.9490 H   0  0  0  0  0  0  0  0  0  0  0  0
   32.5218   39.5623   29.9408 H   0  0  0  0  0  0  0  0  0  0  0  0
   33.9392   40.4785   28.1452 H   0  0  0  0  0  0  0  0  0  0  0  0
   32.3219   40.2263   27.5282 H   0  0  0  0  0  0  0  0  0  0  0  0
  1  2  1  0
  2  8  2  0
  2  3  1  0
  3  4  2  0
  3 34  1  0
  4  5  1  0
  4 35  1  0
  5  6  2  0
  5  9  1  0
  6  7  1  0
  6  8  1  0
  8 36  1  0
  9 10  1  0
 10 11  2  0
 10 12  1  0
 11 21  1  0
 11 37  1  0
 12 13  2  0
 12 14  1  0
 14 15  1  0
 14 20  1  0
 15 16  1  0
 15 38  1  0
 15 39  1  0
 16 33  1  0
 16 17  1  0
 16 18  1  0
 17 40  1  0
 18 19  1  0
 18 41  1  0
 18 42  1  0
 19 43  1  0
 20 21  2  0
 20 22  1  0
 21 25  1  0
 22 23  2  0
 23 24  1  0
 23 26  1  0
 24 25  2  0
 25 44  1  0
 26 27  1  0
 26 45  1  0
 27 32  1  0
 27 28  1  0
 27 46  1  0
 28 29  1  0
 28 47  1  0
 28 48  1  0
 29 30  1  0
 29 49  1  0
 29 50  1  0
 30 31  1  0
 31 32  1  0
 31 51  1  0
 31 52  1  0
 32 53  1  0
 32 54  1  0
M  END
>  <s_m_entry_id>  (1) 
726

>  <i_f3d_flags>  (1) 
0

>  <r_lp_tautomer_probability>  (1) 
1

>  <r_epik_Ionization_Penalty>  (1) 
  0.0000

>  <r_epik_State_Penalty>  (1) 
  0.0000

>  <i_epik_Tot_Q>  (1) 
0

>  <s_m_job_name>  (1) 
glide-dock_SP_p38_all_ligs_no_cons_10_poses

>  <r_i_docking_score>  (1) 
-7.74233540551802

>  <r_i_glide_gscore>  (1) 
-7.74233540551802

>  <r_i_glide_emodel>  (1) 
-64.3983842009382

>  <index_string>  (1) 
9:0:0

$$$$
