16:0:0
     RDKit          3D

 37 39  0  0  1  0  0  0  0  0999 V2000
  -14.4125  -14.9044  -27.7603 C   0  0  0  0  0  0  0  0  0  0  0  0
  -15.0069  -15.6317  -26.7076 C   0  0  0  0  0  0  0  0  0  0  0  0
  -14.4482  -13.5071  -27.7671 C   0  0  0  0  0  0  0  0  0  0  0  0
  -15.7160  -15.0195  -25.6698 C   0  0  0  0  0  0  0  0  0  0  0  0
  -14.8367  -17.0231  -26.7509 N   0  0  0  0  0  0  0  0  0  0  0  0
  -15.1100  -12.8593  -26.7200 C   0  0  0  0  0  0  0  0  0  0  0  0
  -15.7269  -13.6171  -25.7047 C   0  0  0  0  0  0  0  0  0  0  0  0
  -16.3526  -15.9320  -24.6382 C   0  0  0  0  0  0  0  0  0  0  0  0
  -16.1200  -17.2376  -24.8123 N   0  0  0  0  0  0  0  0  0  0  0  0
  -17.0382  -15.5728  -23.6936 O   0  0  0  0  0  0  0  0  0  0  0  0
  -15.3634  -17.7915  -25.8427 C   0  0  0  0  0  0  0  0  0  0  0  0
  -15.2034  -19.2680  -25.9321 C   0  0  0  0  0  0  0  0  0  0  0  0
  -15.4402  -20.1120  -24.8277 C   0  0  0  0  0  0  0  0  0  0  0  0
  -15.2074  -21.4981  -24.9357 C   0  0  0  0  0  0  0  0  0  0  0  0
  -14.7319  -22.0593  -26.1446 C   0  0  0  0  0  0  0  0  0  0  0  0
  -14.5373  -21.2095  -27.2456 C   0  0  0  0  0  0  0  0  0  0  0  0
  -14.7810  -19.8384  -27.1439 C   0  0  0  0  0  0  0  0  0  0  0  0
  -14.4023  -23.5458  -26.2467 C   0  0  0  0  0  0  0  0  0  0  0  0
  -14.0145  -23.9704  -27.5383 O   0  0  0  0  0  0  0  0  0  0  0  0
  -15.6496  -24.3727  -25.9384 C   0  0  0  0  0  0  0  0  0  0  0  0
  -13.1930  -23.8675  -25.3604 C   0  0  0  0  0  0  0  0  0  0  0  0
  -16.4482  -12.7728  -24.4812 Cl  0  0  0  0  0  0  0  0  0  0  0  0
  -13.8914  -15.4261  -28.5513 H   0  0  0  0  0  0  0  0  0  0  0  0
  -13.9725  -12.9386  -28.5533 H   0  0  0  0  0  0  0  0  0  0  0  0
  -15.1404  -11.7784  -26.6952 H   0  0  0  0  0  0  0  0  0  0  0  0
  -16.5732  -17.8665  -24.1611 H   0  0  0  0  0  0  0  0  0  0  0  0
  -15.7698  -19.7116  -23.8799 H   0  0  0  0  0  0  0  0  0  0  0  0
  -15.3673  -22.1254  -24.0709 H   0  0  0  0  0  0  0  0  0  0  0  0
  -14.1650  -21.5729  -28.1848 H   0  0  0  0  0  0  0  0  0  0  0  0
  -14.5881  -19.2259  -28.0127 H   0  0  0  0  0  0  0  0  0  0  0  0
  -13.8171  -24.8938  -27.5041 H   0  0  0  0  0  0  0  0  0  0  0  0
  -15.9677  -24.2538  -24.9024 H   0  0  0  0  0  0  0  0  0  0  0  0
  -15.4895  -25.4363  -26.1078 H   0  0  0  0  0  0  0  0  0  0  0  0
  -16.4835  -24.0760  -26.5752 H   0  0  0  0  0  0  0  0  0  0  0  0
  -13.4274  -23.7656  -24.3009 H   0  0  0  0  0  0  0  0  0  0  0  0
  -12.8231  -24.8772  -25.5385 H   0  0  0  0  0  0  0  0  0  0  0  0
  -12.3694  -23.1883  -25.5778 H   0  0  0  0  0  0  0  0  0  0  0  0
  1  2  2  0
  1  3  1  0
  1 23  1  0
  2  4  1  0
  2  5  1  0
  3  6  2  0
  3 24  1  0
  4  7  2  0
  4  8  1  0
  5 11  2  0
  6  7  1  0
  6 25  1  0
  7 22  1  0
  8  9  1  0
  8 10  2  0
  9 11  1  0
  9 26  1  0
 11 12  1  0
 12 13  2  0
 12 17  1  0
 13 14  1  0
 13 27  1  0
 14 15  2  0
 14 28  1  0
 15 16  1  0
 15 18  1  0
 16 17  2  0
 16 29  1  0
 17 30  1  0
 18 19  1  0
 18 20  1  0
 18 21  1  0
 19 31  1  0
 20 32  1  0
 20 33  1  0
 20 34  1  0
 21 35  1  0
 21 36  1  0
 21 37  1  0
M  END
>  <s_m_entry_id>  (1) 
458

>  <Name>  (1) 
5c

>  <IC50[nM]>  (1) 
50

>  <s_m_Source_Path>  (1) 
/projects/mai/users/kmzp800_harry/pmx_colab/docking_jobs/tnks2

>  <s_m_Source_File>  (1) 
tnks2_lig.sdf

>  <i_m_Source_File_Index>  (1) 
17

>  <s_m_job_name>  (1) 
glide-dock_SP_tnks2_core_const

>  <r_i_docking_score>  (1) 
-9.34300283484444

>  <r_i_glide_gscore>  (1) 
-9.34300283484444

>  <r_i_glide_emodel>  (1) 
-47.4245591038903

>  <index_string>  (1) 
16:0:0

$$$$
