19:0:0
     RDKit          3D

 47 49  0  0  1  0  0  0  0  0999 V2000
  -15.2130  -19.2460  -25.9379 C   0  0  0  0  0  0  0  0  0  0  0  0
  -15.4612  -20.0605  -24.8207 C   0  0  0  0  0  0  0  0  0  0  0  0
  -14.7789  -19.8340  -27.1376 C   0  0  0  0  0  0  0  0  0  0  0  0
  -15.3674  -17.7783  -25.8492 C   0  0  0  0  0  0  0  0  0  0  0  0
  -15.2288  -21.4422  -24.9016 C   0  0  0  0  0  0  0  0  0  0  0  0
  -14.5225  -21.2037  -27.2029 C   0  0  0  0  0  0  0  0  0  0  0  0
  -14.7454  -22.0300  -26.0878 C   0  0  0  0  0  0  0  0  0  0  0  0
  -16.1143  -17.2322  -24.8112 N   0  0  0  0  0  0  0  0  0  0  0  0
  -16.3723  -15.9298  -24.6551 C   0  0  0  0  0  0  0  0  0  0  0  0
  -14.8467  -17.0123  -26.7588 N   0  0  0  0  0  0  0  0  0  0  0  0
  -14.9912  -15.6214  -26.6993 C   0  0  0  0  0  0  0  0  0  0  0  0
  -15.7283  -15.0069  -25.6669 C   0  0  0  0  0  0  0  0  0  0  0  0
  -15.8269  -13.5946  -25.6534 C   0  0  0  0  0  0  0  0  0  0  0  0
  -15.1757  -12.8515  -26.6746 C   0  0  0  0  0  0  0  0  0  0  0  0
  -14.4483  -13.4850  -27.6910 C   0  0  0  0  0  0  0  0  0  0  0  0
  -14.3822  -14.8782  -27.7200 C   0  0  0  0  0  0  0  0  0  0  0  0
  -17.0952  -15.5720  -23.7391 O   0  0  0  0  0  0  0  0  0  0  0  0
  -14.5335  -23.5385  -26.1775 C   0  0  0  0  0  0  0  0  0  0  0  0
  -14.6139  -23.9271  -27.5437 O   0  0  0  0  0  0  0  0  0  0  0  0
  -15.2481  -11.5113  -26.7386 F   0  0  0  0  0  0  0  0  0  0  0  0
  -14.7455  -25.2948  -27.9524 C   0  0  0  0  0  0  0  0  0  0  0  0
  -16.2123  -25.7369  -28.2178 C   0  0  0  0  0  0  0  0  0  0  0  0
  -16.8386  -24.9949  -29.2600 O   0  0  0  0  0  0  0  0  0  0  0  0
  -16.7639  -25.6371  -30.5232 C   0  0  0  0  0  0  0  0  0  0  0  0
  -15.6881  -24.2286  -25.4521 C   0  0  0  0  0  0  0  0  0  0  0  0
  -13.1381  -23.8875  -25.6235 C   0  0  0  0  0  0  0  0  0  0  0  0
  -15.7957  -19.6411  -23.8821 H   0  0  0  0  0  0  0  0  0  0  0  0
  -14.5781  -19.2347  -28.0149 H   0  0  0  0  0  0  0  0  0  0  0  0
  -15.3952  -22.0177  -24.0042 H   0  0  0  0  0  0  0  0  0  0  0  0
  -14.1378  -21.5734  -28.1336 H   0  0  0  0  0  0  0  0  0  0  0  0
  -16.5706  -17.8622  -24.1649 H   0  0  0  0  0  0  0  0  0  0  0  0
  -16.3906  -13.0855  -24.8840 H   0  0  0  0  0  0  0  0  0  0  0  0
  -13.9664  -12.8961  -28.4596 H   0  0  0  0  0  0  0  0  0  0  0  0
  -13.8349  -15.3747  -28.5086 H   0  0  0  0  0  0  0  0  0  0  0  0
  -14.2694  -25.9611  -27.2334 H   0  0  0  0  0  0  0  0  0  0  0  0
  -14.1746  -25.4084  -28.8729 H   0  0  0  0  0  0  0  0  0  0  0  0
  -16.8430  -25.6281  -27.3408 H   0  0  0  0  0  0  0  0  0  0  0  0
  -16.2333  -26.8051  -28.4400 H   0  0  0  0  0  0  0  0  0  0  0  0
  -17.1731  -24.9833  -31.2922 H   0  0  0  0  0  0  0  0  0  0  0  0
  -17.3483  -26.5586  -30.5211 H   0  0  0  0  0  0  0  0  0  0  0  0
  -15.7355  -25.8813  -30.7953 H   0  0  0  0  0  0  0  0  0  0  0  0
  -15.7416  -24.0154  -24.3869 H   0  0  0  0  0  0  0  0  0  0  0  0
  -16.6022  -23.8952  -25.9389 H   0  0  0  0  0  0  0  0  0  0  0  0
  -15.6612  -25.3019  -25.5407 H   0  0  0  0  0  0  0  0  0  0  0  0
  -13.0669  -23.6609  -24.5595 H   0  0  0  0  0  0  0  0  0  0  0  0
  -12.8571  -24.9300  -25.7619 H   0  0  0  0  0  0  0  0  0  0  0  0
  -12.3775  -23.2940  -26.1301 H   0  0  0  0  0  0  0  0  0  0  0  0
  1  2  2  0
  1  3  1  0
  1  4  1  0
  2  5  1  0
  2 27  1  0
  3  6  2  0
  3 28  1  0
  4  8  1  0
  4 10  2  0
  5  7  2  0
  5 29  1  0
  6  7  1  0
  6 30  1  0
  7 18  1  0
  8  9  1  0
  8 31  1  0
  9 12  1  0
  9 17  2  0
 10 11  1  0
 11 12  2  0
 11 16  1  0
 12 13  1  0
 13 14  2  0
 13 32  1  0
 14 15  1  0
 14 20  1  0
 15 16  2  0
 15 33  1  0
 16 34  1  0
 18 19  1  0
 18 25  1  0
 18 26  1  0
 19 21  1  0
 21 22  1  0
 21 35  1  0
 21 36  1  0
 22 23  1  0
 22 37  1  0
 22 38  1  0
 23 24  1  0
 24 39  1  0
 24 40  1  0
 24 41  1  0
 25 42  1  0
 25 43  1  0
 25 44  1  0
 26 45  1  0
 26 46  1  0
 26 47  1  0
M  END
>  <s_m_entry_id>  (1) 
461

>  <Name>  (1) 
5p

>  <IC50[nM]>  (1) 
20

>  <s_m_Source_Path>  (1) 
/projects/mai/users/kmzp800_harry/pmx_colab/docking_jobs/tnks2

>  <s_m_Source_File>  (1) 
tnks2_lig.sdf

>  <i_m_Source_File_Index>  (1) 
20

>  <s_m_job_name>  (1) 
glide-dock_SP_tnks2_core_const

>  <r_i_docking_score>  (1) 
-10.7020581545996

>  <r_i_glide_gscore>  (1) 
-10.7020581545996

>  <r_i_glide_emodel>  (1) 
-52.440431804325

>  <index_string>  (1) 
19:0:0

$$$$
