28:0:0
     RDKit          3D

 55 58  0  0  1  0  0  0  0  0999 V2000
   38.9521   36.4131   15.9513 F   0  0  0  0  0  0  0  0  0  0  0  0
   37.8968   36.1280   16.7386 C   0  0  0  0  0  0  0  0  0  0  0  0
   38.0182   36.1860   18.1374 C   0  0  0  0  0  0  0  0  0  0  0  0
   36.8938   35.9493   18.9496 C   0  0  0  0  0  0  0  0  0  0  0  0
   37.0513   35.9506   20.2891 F   0  0  0  0  0  0  0  0  0  0  0  0
   35.6381   35.6451   18.3619 C   0  0  0  0  0  0  0  0  0  0  0  0
   35.5433   35.5493   16.9624 C   0  0  0  0  0  0  0  0  0  0  0  0
   36.6636   35.8010   16.1560 C   0  0  0  0  0  0  0  0  0  0  0  0
   34.4996   35.3622   19.0775 O   0  0  0  0  0  0  0  0  0  0  0  0
   34.2670   35.9716   20.2816 C   0  0  0  0  0  0  0  0  0  0  0  0
   34.3943   37.3054   20.4352 C   0  0  0  0  0  0  0  0  0  0  0  0
   33.8603   35.1019   21.3864 C   0  0  0  0  0  0  0  0  0  0  0  0
   33.7510   33.8843   21.2279 O   0  0  0  0  0  0  0  0  0  0  0  0
   33.6218   35.7024   22.5908 N   0  0  0  0  0  0  0  0  0  0  0  0
   33.1959   34.8521   23.7206 C   0  0  0  0  0  0  0  0  0  0  0  0
   31.6642   34.6851   23.7660 C   0  0  0  0  0  0  0  0  0  0  0  0
   31.1796   33.2813   24.8528 S   0  0  0  0  0  0  0  0  0  0  0  0
   32.1111   33.2156   25.9884 O   0  0  0  0  0  0  0  0  0  0  0  0
   29.7315   33.3468   25.0890 O   0  0  0  0  0  0  0  0  0  0  0  0
   31.5007   31.8384   23.7654 C   0  0  0  0  0  0  0  0  0  0  0  0
   33.7781   37.1141   22.8124 C   0  0  0  0  0  0  0  0  0  0  0  0
   34.1718   37.9280   21.7299 C   0  0  0  0  0  0  0  0  0  0  0  0
   33.5670   37.6826   24.0184 N   0  0  0  0  0  0  0  0  0  0  0  0
   33.7588   38.9940   24.1507 C   0  0  0  0  0  0  0  0  0  0  0  0
   34.1521   39.8367   23.1960 N   0  0  0  0  0  0  0  0  0  0  0  0
   34.3535   39.3028   21.9739 C   0  0  0  0  0  0  0  0  0  0  0  0
   33.5341   39.5493   25.3917 N   0  0  0  0  0  0  0  0  0  0  0  0
   32.9411   38.8520   26.5276 C   0  0  0  0  0  0  0  0  0  0  0  0
   33.1548   39.6443   27.8241 C   0  0  0  0  0  0  0  0  0  0  0  0
   32.4832   38.9253   29.0042 C   0  0  0  0  0  0  0  0  0  0  0  0
   31.0962   38.7493   28.7409 O   0  0  0  0  0  0  0  0  0  0  0  0
   30.8323   37.9483   27.5940 C   0  0  0  0  0  0  0  0  0  0  0  0
   31.4324   38.6088   26.3405 C   0  0  0  0  0  0  0  0  0  0  0  0
   38.9735   36.4072   18.5881 H   0  0  0  0  0  0  0  0  0  0  0  0
   34.5960   35.3022   16.5045 H   0  0  0  0  0  0  0  0  0  0  0  0
   36.5734   35.7579   15.0891 H   0  0  0  0  0  0  0  0  0  0  0  0
   34.6821   37.9396   19.6090 H   0  0  0  0  0  0  0  0  0  0  0  0
   33.6783   33.8748   23.6681 H   0  0  0  0  0  0  0  0  0  0  0  0
   33.5468   35.2520   24.6726 H   0  0  0  0  0  0  0  0  0  0  0  0
   31.1941   35.5877   24.1575 H   0  0  0  0  0  0  0  0  0  0  0  0
   31.2384   34.4966   22.7802 H   0  0  0  0  0  0  0  0  0  0  0  0
   31.2487   30.9260   24.3033 H   0  0  0  0  0  0  0  0  0  0  0  0
   30.8873   31.9140   22.8675 H   0  0  0  0  0  0  0  0  0  0  0  0
   32.5521   31.8137   23.4891 H   0  0  0  0  0  0  0  0  0  0  0  0
   34.6684   39.9739   21.1890 H   0  0  0  0  0  0  0  0  0  0  0  0
   33.7059   40.5459   25.4890 H   0  0  0  0  0  0  0  0  0  0  0  0
   33.4416   37.8881   26.6324 H   0  0  0  0  0  0  0  0  0  0  0  0
   34.2201   39.7682   28.0223 H   0  0  0  0  0  0  0  0  0  0  0  0
   32.7347   40.6471   27.7265 H   0  0  0  0  0  0  0  0  0  0  0  0
   32.9536   37.9586   29.1909 H   0  0  0  0  0  0  0  0  0  0  0  0
   32.5945   39.5153   29.9143 H   0  0  0  0  0  0  0  0  0  0  0  0
   31.2384   36.9458   27.7365 H   0  0  0  0  0  0  0  0  0  0  0  0
   29.7522   37.8410   27.4859 H   0  0  0  0  0  0  0  0  0  0  0  0
   30.9286   39.5562   26.1514 H   0  0  0  0  0  0  0  0  0  0  0  0
   31.2444   37.9776   25.4718 H   0  0  0  0  0  0  0  0  0  0  0  0
  1  2  1  0
  2  8  2  0
  2  3  1  0
  3  4  2  0
  3 34  1  0
  4  5  1  0
  4  6  1  0
  6  7  2  0
  6  9  1  0
  7  8  1  0
  7 35  1  0
  8 36  1  0
  9 10  1  0
 10 11  2  0
 10 12  1  0
 11 22  1  0
 11 37  1  0
 12 13  2  0
 12 14  1  0
 14 15  1  0
 14 21  1  0
 15 16  1  0
 15 38  1  0
 15 39  1  0
 16 17  1  0
 16 40  1  0
 16 41  1  0
 17 18  2  0
 17 19  2  0
 17 20  1  0
 20 42  1  0
 20 43  1  0
 20 44  1  0
 21 22  2  0
 21 23  1  0
 22 26  1  0
 23 24  2  0
 24 25  1  0
 24 27  1  0
 25 26  2  0
 26 45  1  0
 27 28  1  0
 27 46  1  0
 28 33  1  0
 28 29  1  0
 28 47  1  0
 29 30  1  0
 29 48  1  0
 29 49  1  0
 30 31  1  0
 30 50  1  0
 30 51  1  0
 31 32  1  0
 32 33  1  0
 32 52  1  0
 32 53  1  0
 33 54  1  0
 33 55  1  0
M  END
>  <s_m_entry_id>  (1) 
744

>  <i_f3d_flags>  (1) 
0

>  <r_lp_tautomer_probability>  (1) 
1

>  <r_epik_Ionization_Penalty>  (1) 
  0.0000

>  <r_epik_State_Penalty>  (1) 
  0.0000

>  <i_epik_Tot_Q>  (1) 
0

>  <s_m_job_name>  (1) 
glide-dock_SP_p38_all_ligs_no_cons_10_poses

>  <r_i_docking_score>  (1) 
-7.37213781860124

>  <r_i_glide_gscore>  (1) 
-7.37213781860124

>  <r_i_glide_emodel>  (1) 
-67.493930768664

>  <index_string>  (1) 
28:0:0

$$$$
