1:0:0
     RDKit          3D

 46 49  0  0  1  0  0  0  0  0999 V2000
   34.1350   39.6510   25.7600 N   0  0  0  0  0  0  0  0  0  0  0  0
   34.1420   39.0950   24.4440 C   0  0  0  0  0  0  0  0  0  0  0  0
   33.9520   39.9080   23.3720 N   0  0  0  0  0  0  0  0  0  0  0  0
   33.9500   39.4120   22.1080 C   0  0  0  0  0  0  0  0  0  0  0  0
   34.1440   38.0500   21.8990 C   0  0  0  0  0  0  0  0  0  0  0  0
   34.1530   37.5120   20.6180 C   0  0  0  0  0  0  0  0  0  0  0  0
   34.3600   36.1450   20.4390 C   0  0  0  0  0  0  0  0  0  0  0  0
   34.5220   35.3210   21.5750 C   0  0  0  0  0  0  0  0  0  0  0  0
   34.6450   34.0730   21.4290 O   0  0  0  0  0  0  0  0  0  0  0  0
   34.5200   35.8680   22.8320 N   0  0  0  0  0  0  0  0  0  0  0  0
   34.7040   35.0030   23.9930 C   0  0  0  0  0  0  0  0  0  0  0  0
   34.3370   37.2130   23.0120 C   0  0  0  0  0  0  0  0  0  0  0  0
   34.3300   37.7590   24.2590 N   0  0  0  0  0  0  0  0  0  0  0  0
   34.3570   38.8520   26.9550 C   0  0  0  0  0  0  0  0  0  0  0  0
   35.8330   38.8720   27.3210 C   0  0  0  0  0  0  0  0  0  0  0  0
   33.5330   39.4210   28.0990 C   0  0  0  0  0  0  0  0  0  0  0  0
   30.7040   37.5080   28.9690 C   0  0  0  0  0  0  0  0  0  0  0  0
   30.3810   37.8480   27.7010 N   0  0  0  0  0  0  0  0  0  0  0  0
   31.3820   38.5900   27.2590 N   0  0  0  0  0  0  0  0  0  0  0  0
   32.2750   38.7030   28.2240 N   0  0  0  0  0  0  0  0  0  0  0  0
   31.8970   38.0420   29.3010 N   0  0  0  0  0  0  0  0  0  0  0  0
   34.3570   35.6370   19.1320 O   0  0  0  0  0  0  0  0  0  0  0  0
   35.4210   35.7280   18.2250 C   0  0  0  0  0  0  0  0  0  0  0  0
   35.1340   35.6580   16.8560 C   0  0  0  0  0  0  0  0  0  0  0  0
   36.1580   35.7540   15.9120 C   0  0  0  0  0  0  0  0  0  0  0  0
   37.4800   35.9290   16.3280 C   0  0  0  0  0  0  0  0  0  0  0  0
   38.4730   36.0210   15.4120 F   0  0  0  0  0  0  0  0  0  0  0  0
   37.7750   36.0220   17.6900 C   0  0  0  0  0  0  0  0  0  0  0  0
   36.7540   35.9270   18.6410 C   0  0  0  0  0  0  0  0  0  0  0  0
   37.0650   36.0700   19.9530 F   0  0  0  0  0  0  0  0  0  0  0  0
   33.9654   40.6613   25.8672 H   0  0  0  0  0  0  0  0  0  0  0  0
   33.7955   40.0849   21.2517 H   0  0  0  0  0  0  0  0  0  0  0  0
   33.9970   38.1640   19.7459 H   0  0  0  0  0  0  0  0  0  0  0  0
   34.5786   35.5926   24.9131 H   0  0  0  0  0  0  0  0  0  0  0  0
   33.9576   34.1953   23.9705 H   0  0  0  0  0  0  0  0  0  0  0  0
   35.7145   34.5691   23.9705 H   0  0  0  0  0  0  0  0  0  0  0  0
   34.0509   37.8127   26.7647 H   0  0  0  0  0  0  0  0  0  0  0  0
   35.9393   38.8734   28.4159 H   0  0  0  0  0  0  0  0  0  0  0  0
   36.3258   37.9805   26.9059 H   0  0  0  0  0  0  0  0  0  0  0  0
   36.3015   39.7766   26.9059 H   0  0  0  0  0  0  0  0  0  0  0  0
   34.0999   39.3248   29.0368 H   0  0  0  0  0  0  0  0  0  0  0  0
   33.3201   40.4803   27.8928 H   0  0  0  0  0  0  0  0  0  0  0  0
   30.0845   36.8868   29.6326 H   0  0  0  0  0  0  0  0  0  0  0  0
   34.0942   35.5264   16.5221 H   0  0  0  0  0  0  0  0  0  0  0  0
   35.9235   35.6918   14.8391 H   0  0  0  0  0  0  0  0  0  0  0  0
   38.8150   36.1706   18.0161 H   0  0  0  0  0  0  0  0  0  0  0  0
  1 14  1  0
  1  2  1  0
  2  3  2  0
  2 13  1  0
  3  4  1  0
  4  5  2  0
  5 12  1  0
  5  6  1  0
  6  7  2  0
  7  8  1  0
  7 22  1  0
  8 10  1  0
  8  9  2  0
 10 12  1  0
 10 11  1  0
 12 13  2  0
 14 15  1  0
 14 16  1  0
 16 20  1  0
 17 21  2  0
 17 18  1  0
 18 19  2  0
 19 20  1  0
 20 21  1  0
 22 23  1  0
 23 29  1  0
 23 24  2  0
 24 25  1  0
 25 26  2  0
 26 28  1  0
 26 27  1  0
 28 29  2  0
 29 30  1  0
  1 31  1  0
  4 32  1  0
  6 33  1  0
 11 34  1  0
 11 35  1  0
 11 36  1  0
 14 37  1  0
 15 38  1  0
 15 39  1  0
 15 40  1  0
 16 41  1  0
 16 42  1  0
 17 43  1  0
 24 44  1  0
 25 45  1  0
 28 46  1  0
M  END
>  <s_m_entry_id>  (1) 
50

>  <MODEL>  (1) 
3

>  <REMARK>  (1) 
 VINA RESULT:    -8.543      1.189      1.540
 INTER + INTRA:         -11.682
 INTER:                 -10.915
 INTRA:                  -0.766
 UNBOUND:                -0.641
  Name = /scratch/kmzp800/tmp8on4avld/tmp_r1zng34.pdb
  7 active torsions:
  status: ('A' for Active; 'I' for Inactive)
    1  A    between atoms: N3_4  and  C2_5
    2  A    between atoms: C2_5  and  C3_6
    3  A    between atoms: C3_6  and  N4_7
    4  A    between atoms: C3_6  and  C18_29
    5  A    between atoms: C8_13  and  O1_14
    6  A    between atoms: O1_14  and  C9_15
    7  A    between atoms: N6_25  and  C16_26
                            x       y       z     vdW  Elec       q    Type
                         _______ _______ _______ _____ _____    ______ ____

>  <TORSDO>  (1) 
F 5

>  <grid_id>  (1) 
p38-prepared

>  <grid_path>  (1) 
/projects/mai/users/kmzp800_harry/pmx_colab/docking_jobs/p38/vina_docking/input_files/p38_vina.pdbqt

>  <grid_filename>  (1) 
p38_vina.pdbqt

>  <docking_score>  (1) 
-8.543

>  <compound_name>  (1) 
lig_p38a_3fmh

>  <index_string>  (1) 
1:0:0

$$$$
