13:0:0
     RDKit          3D

 46 49  0  0  1  0  0  0  0  0999 V2000
   33.0080   35.7600   21.1210 C   0  0  0  0  0  0  0  0  0  0  0  0
   33.4410   36.8950   21.8050 C   0  0  0  0  0  0  0  0  0  0  0  0
   33.5150   36.8750   23.1920 C   0  0  0  0  0  0  0  0  0  0  0  0
   33.9480   37.9880   23.9070 C   0  0  0  0  0  0  0  0  0  0  0  0
   34.0100   37.9350   25.2630 N   0  0  0  0  0  0  0  0  0  0  0  0
   33.6560   36.8070   25.9410 C   0  0  0  0  0  0  0  0  0  0  0  0
   33.7250   36.7610   27.3710 N   0  0  0  0  0  0  0  0  0  0  0  0
   33.2310   35.7120   25.2560 N   0  0  0  0  0  0  0  0  0  0  0  0
   33.1510   35.7140   23.8960 C   0  0  0  0  0  0  0  0  0  0  0  0
   32.7220   34.6060   23.2150 N   0  0  0  0  0  0  0  0  0  0  0  0
   32.3430   33.4040   23.9510 C   0  0  0  0  0  0  0  0  0  0  0  0
   32.6430   34.6130   21.8460 C   0  0  0  0  0  0  0  0  0  0  0  0
   32.2430   33.5870   21.2270 O   0  0  0  0  0  0  0  0  0  0  0  0
   34.1620   37.8650   28.2190 C   0  0  0  0  0  0  0  0  0  0  0  0
   33.1010   38.9650   28.2800 C   0  0  0  0  0  0  0  0  0  0  0  0
   33.6800   40.1740   29.0140 C   0  0  0  0  0  0  0  0  0  0  0  0
   34.8230   40.6420   28.3410 O   0  0  0  0  0  0  0  0  0  0  0  0
   35.8320   39.6830   28.5440 C   0  0  0  0  0  0  0  0  0  0  0  0
   35.5120   38.4150   27.7520 C   0  0  0  0  0  0  0  0  0  0  0  0
   32.9220   35.8020   19.3290 S   0  0  0  0  0  0  0  0  0  0  0  0
   37.4890   36.0040   18.8950 C   0  0  0  0  0  0  0  0  0  0  0  0
   36.8910   36.1850   20.1450 C   0  0  0  0  0  0  0  0  0  0  0  0
   35.5000   36.1220   20.2710 C   0  0  0  0  0  0  0  0  0  0  0  0
   34.7030   35.8790   19.1460 C   0  0  0  0  0  0  0  0  0  0  0  0
   35.3050   35.6920   17.8930 C   0  0  0  0  0  0  0  0  0  0  0  0
   34.5490   35.4500   16.7940 F   0  0  0  0  0  0  0  0  0  0  0  0
   36.6960   35.7560   17.7700 C   0  0  0  0  0  0  0  0  0  0  0  0
   33.7226   37.8016   21.2493 H   0  0  0  0  0  0  0  0  0  0  0  0
   34.2387   38.9066   23.3763 H   0  0  0  0  0  0  0  0  0  0  0  0
   33.4457   35.8846   27.8345 H   0  0  0  0  0  0  0  0  0  0  0  0
   32.4051   33.6008   25.0315 H   0  0  0  0  0  0  0  0  0  0  0  0
   31.3126   33.1227   23.6881 H   0  0  0  0  0  0  0  0  0  0  0  0
   33.0257   32.5825   23.6881 H   0  0  0  0  0  0  0  0  0  0  0  0
   34.2961   37.4770   29.2395 H   0  0  0  0  0  0  0  0  0  0  0  0
   32.8127   39.2565   27.2592 H   0  0  0  0  0  0  0  0  0  0  0  0
   32.2131   38.5959   28.8142 H   0  0  0  0  0  0  0  0  0  0  0  0
   32.9256   40.9737   29.0507 H   0  0  0  0  0  0  0  0  0  0  0  0
   33.9583   39.8773   30.0360 H   0  0  0  0  0  0  0  0  0  0  0  0
   36.7960   40.0907   28.2057 H   0  0  0  0  0  0  0  0  0  0  0  0
   35.8874   39.4368   29.6147 H   0  0  0  0  0  0  0  0  0  0  0  0
   36.2965   37.6637   27.9254 H   0  0  0  0  0  0  0  0  0  0  0  0
   35.4676   38.6482   26.6779 H   0  0  0  0  0  0  0  0  0  0  0  0
   38.5833   36.0566   18.7959 H   0  0  0  0  0  0  0  0  0  0  0  0
   37.5150   36.3771   21.0303 H   0  0  0  0  0  0  0  0  0  0  0  0
   35.0310   36.2636   21.2559 H   0  0  0  0  0  0  0  0  0  0  0  0
   37.1676   35.6111   16.7868 H   0  0  0  0  0  0  0  0  0  0  0  0
  1  2  2  0
  1 12  1  0
  1 20  1  0
  2  3  1  0
  3  9  2  0
  3  4  1  0
  4  5  2  0
  5  6  1  0
  6  7  1  0
  6  8  2  0
  7 14  1  0
  8  9  1  0
  9 10  1  0
 10 11  1  0
 10 12  1  0
 12 13  2  0
 14 15  1  0
 14 19  1  0
 15 16  1  0
 16 17  1  0
 17 18  1  0
 18 19  1  0
 20 24  1  0
 21 22  2  0
 21 27  1  0
 22 23  1  0
 23 24  2  0
 24 25  1  0
 25 26  1  0
 25 27  2  0
  2 28  1  0
  4 29  1  0
  7 30  1  0
 11 31  1  0
 11 32  1  0
 11 33  1  0
 14 34  1  0
 15 35  1  0
 15 36  1  0
 16 37  1  0
 16 38  1  0
 18 39  1  0
 18 40  1  0
 19 41  1  0
 19 42  1  0
 21 43  1  0
 22 44  1  0
 23 45  1  0
 27 46  1  0
M  END
>  <s_m_entry_id>  (1) 
63

>  <MODEL>  (1) 
31

>  <REMARK>  (1) 
 VINA RESULT:   -13.009      3.689      8.258
 INTER + INTRA:          -7.524
 INTER:                  -8.400
 INTRA:                   0.875
 UNBOUND:                 7.767
  Name = /scratch/kmzp800/tmpvuocj30j/tmp_pogqh0p.pdb
  4 active torsions:
  status: ('A' for Active; 'I' for Inactive)
    1  A    between atoms: C4_4  and  S1_5
    2  A    between atoms: S1_5  and  C5_6
    3  A    between atoms: N2_12  and  C10_13
    4  A    between atoms: N4_21  and  C16_22
                            x       y       z     vdW  Elec       q    Type
                         _______ _______ _______ _____ _____    ______ ____

>  <TORSDO>  (1) 
F 3

>  <grid_id>  (1) 
p38-prepared

>  <grid_path>  (1) 
/projects/mai/users/kmzp800_harry/pmx_colab/docking_jobs/p38/vina_docking/input_files/p38_vina.pdbqt

>  <grid_filename>  (1) 
p38_vina.pdbqt

>  <docking_score>  (1) 
-13.009

>  <compound_name>  (1) 
lig_p38a_2h

>  <index_string>  (1) 
13:0:0

$$$$
