24:0:0
     RDKit          3D

 43 46  0  0  1  0  0  0  0  0999 V2000
  -14.3635  -14.9904  -27.7527 C   0  0  0  0  0  0  0  0  0  0  0  0
  -14.9586  -15.7650  -26.7338 C   0  0  0  0  0  0  0  0  0  0  0  0
  -14.4482  -13.5922  -27.7289 C   0  0  0  0  0  0  0  0  0  0  0  0
  -15.6497  -15.1166  -25.6833 C   0  0  0  0  0  0  0  0  0  0  0  0
  -14.8071  -17.1606  -26.7386 N   0  0  0  0  0  0  0  0  0  0  0  0
  -15.1574  -12.9522  -26.7041 C   0  0  0  0  0  0  0  0  0  0  0  0
  -15.7620  -13.7060  -25.6733 C   0  0  0  0  0  0  0  0  0  0  0  0
  -16.2267  -15.9828  -24.5991 C   0  0  0  0  0  0  0  0  0  0  0  0
  -16.0145  -17.2985  -24.7340 N   0  0  0  0  0  0  0  0  0  0  0  0
  -16.8482  -15.5381  -23.6439 O   0  0  0  0  0  0  0  0  0  0  0  0
  -15.2936  -17.8908  -25.7745 C   0  0  0  0  0  0  0  0  0  0  0  0
  -15.1314  -19.3714  -25.8148 C   0  0  0  0  0  0  0  0  0  0  0  0
  -14.8482  -19.9857  -27.0477 C   0  0  0  0  0  0  0  0  0  0  0  0
  -14.6820  -21.3693  -27.1208 C   0  0  0  0  0  0  0  0  0  0  0  0
  -14.7803  -22.1783  -25.9784 C   0  0  0  0  0  0  0  0  0  0  0  0
  -15.0717  -21.5731  -24.7380 C   0  0  0  0  0  0  0  0  0  0  0  0
  -15.2484  -20.1743  -24.6557 C   0  0  0  0  0  0  0  0  0  0  0  0
  -13.6501  -15.5727  -28.7386 F   0  0  0  0  0  0  0  0  0  0  0  0
  -15.2482  -11.6059  -26.7386 F   0  0  0  0  0  0  0  0  0  0  0  0
  -14.5454  -23.6746  -26.1121 C   0  0  0  0  0  0  0  0  0  0  0  0
  -15.5490  -24.3194  -27.0944 C   0  0  0  0  0  0  0  0  0  0  0  0
  -15.2390  -25.8021  -27.3433 C   0  0  0  0  0  0  0  0  0  0  0  0
  -13.8434  -25.9850  -27.8033 N   0  0  0  0  0  0  0  0  0  0  0  0
  -12.8381  -25.4520  -26.8566 C   0  0  0  0  0  0  0  0  0  0  0  0
  -13.0940  -23.9648  -26.5617 C   0  0  0  0  0  0  0  0  0  0  0  0
  -13.9775  -13.0049  -28.5040 H   0  0  0  0  0  0  0  0  0  0  0  0
  -16.2979  -13.2032  -24.8798 H   0  0  0  0  0  0  0  0  0  0  0  0
  -16.4516  -17.8996  -24.0469 H   0  0  0  0  0  0  0  0  0  0  0  0
  -14.7472  -19.4065  -27.9544 H   0  0  0  0  0  0  0  0  0  0  0  0
  -14.4482  -21.7969  -28.0702 H   0  0  0  0  0  0  0  0  0  0  0  0
  -15.1536  -22.1739  -23.8443 H   0  0  0  0  0  0  0  0  0  0  0  0
  -15.4719  -19.7315  -23.6963 H   0  0  0  0  0  0  0  0  0  0  0  0
  -14.6998  -24.1197  -25.1296 H   0  0  0  0  0  0  0  0  0  0  0  0
  -16.5652  -24.2115  -26.7123 H   0  0  0  0  0  0  0  0  0  0  0  0
  -15.5313  -23.8037  -28.0530 H   0  0  0  0  0  0  0  0  0  0  0  0
  -15.4050  -26.3726  -26.4312 H   0  0  0  0  0  0  0  0  0  0  0  0
  -15.9182  -26.2076  -28.0940 H   0  0  0  0  0  0  0  0  0  0  0  0
  -13.6688  -26.9708  -27.9425 H   0  0  0  0  0  0  0  0  0  0  0  0
  -12.8481  -26.0390  -25.9387 H   0  0  0  0  0  0  0  0  0  0  0  0
  -11.8434  -25.5790  -27.2853 H   0  0  0  0  0  0  0  0  0  0  0  0
  -12.8601  -23.3992  -27.4639 H   0  0  0  0  0  0  0  0  0  0  0  0
  -12.3976  -23.6138  -25.7990 H   0  0  0  0  0  0  0  0  0  0  0  0
  -13.7326  -25.5127  -28.6891 H   0  0  0  0  0  0  0  0  0  0  0  0
  1  2  2  0
  1  3  1  0
  1 18  1  0
  2  4  1  0
  2  5  1  0
  3  6  2  0
  3 26  1  0
  4  7  2  0
  4  8  1  0
  5 11  2  0
  6  7  1  0
  6 19  1  0
  7 27  1  0
  8  9  1  0
  8 10  2  0
  9 11  1  0
  9 28  1  0
 11 12  1  0
 12 13  2  0
 12 17  1  0
 13 14  1  0
 13 29  1  0
 14 15  2  0
 14 30  1  0
 15 16  1  0
 15 20  1  0
 16 17  2  0
 16 31  1  0
 17 32  1  0
 20 21  1  0
 20 25  1  0
 20 33  1  0
 21 22  1  0
 21 34  1  0
 21 35  1  0
 22 23  1  0
 22 36  1  0
 22 37  1  0
 23 24  1  0
 23 38  1  0
 23 43  1  0
 24 25  1  0
 24 39  1  0
 24 40  1  0
 25 41  1  0
 25 42  1  0
M  CHG  1  23   1
M  END
>  <s_m_entry_id>  (1) 
439

>  <Name>  (1) 
8c

>  <IC50[nM]>  (1) 
38

>  <s_m_Source_Path>  (1) 
/projects/mai/users/kmzp800_harry/pmx_colab/docking_jobs/tnks2

>  <s_m_Source_File>  (1) 
tnks2_lig.sdf

>  <i_m_Source_File_Index>  (1) 
25

>  <s_m_job_name>  (1) 
glide-dock_SP_tnks2_no_cons

>  <r_i_docking_score>  (1) 
-9.78438558756949

>  <r_i_glide_gscore>  (1) 
-9.78438558756949

>  <r_i_glide_emodel>  (1) 
-63.9453838193088

>  <index_string>  (1) 
24:0:0

$$$$
