3:0:0
     RDKit          3D

 60 63  0  0  1  0  0  0  0  0999 V2000
   39.1981   17.5280   12.6827 O   0  0  0  0  0  0  0  0  0  0  0  0
   40.3568   17.0636   12.6881 C   0  0  0  0  0  0  0  0  0  0  0  0
   41.2185   17.3059   11.8007 O   0  0  0  0  0  0  0  0  0  0  0  0
   40.7478   16.1339   13.8316 C   0  0  0  0  0  0  0  0  0  0  0  0
   42.1123   15.7386   13.7480 O   0  0  0  0  0  0  0  0  0  0  0  0
   42.5088   14.9146   14.7475 C   0  0  0  0  0  0  0  0  0  0  0  0
   42.1449   13.5499   14.8778 C   0  0  0  0  0  0  0  0  0  0  0  0
   41.2014   12.7853   13.6954 Cl  0  0  0  0  0  0  0  0  0  0  0  0
   42.6124   12.9431   16.0072 C   0  0  0  0  0  0  0  0  0  0  0  0
   42.3454   11.5992   16.4879 C   0  0  0  0  0  0  0  0  0  0  0  0
   43.3867   10.7730   16.9502 C   0  0  0  0  0  0  0  0  0  0  0  0
   43.1125    9.4681   17.3885 C   0  0  0  0  0  0  0  0  0  0  0  0
   41.7923    8.9863   17.3536 C   0  0  0  0  0  0  0  0  0  0  0  0
   40.7419    9.7916   16.8779 C   0  0  0  0  0  0  0  0  0  0  0  0
   39.4147    9.3459   16.7962 N   0  0  0  0  0  0  0  0  0  0  0  0
   39.0697    7.9495   16.5371 C   0  0  0  0  0  0  0  0  0  0  0  0
   37.7254    7.8555   15.7748 C   0  0  0  0  0  0  0  0  0  0  0  0
   37.3214    6.3952   15.4768 C   0  0  0  0  0  0  0  0  0  0  0  0
   38.4175    5.6626   14.8179 N   0  0  0  0  0  0  0  0  0  0  0  0
   38.2573    4.9102   13.2564 S   0  0  0  0  0  0  0  0  0  0  0  0
   37.0254    5.4306   12.6419 O   0  0  0  0  0  0  0  0  0  0  0  0
   39.5386    5.0685   12.5576 O   0  0  0  0  0  0  0  0  0  0  0  0
   37.9890    3.1189   13.6639 C   0  0  0  0  0  0  0  0  0  0  0  0
   39.3012    2.3877   13.9168 C   0  0  0  0  0  0  0  0  0  0  0  0
   40.0491    2.6699   15.0763 C   0  0  0  0  0  0  0  0  0  0  0  0
   41.2968    2.0672   15.3084 C   0  0  0  0  0  0  0  0  0  0  0  0
   41.7692    1.0921   14.4145 C   0  0  0  0  0  0  0  0  0  0  0  0
   40.9946    0.7450   13.2903 C   0  0  0  0  0  0  0  0  0  0  0  0
   39.7752    1.4028   13.0252 C   0  0  0  0  0  0  0  0  0  0  0  0
   39.7339    5.7667   15.4673 C   0  0  0  0  0  0  0  0  0  0  0  0
   40.1307    7.2039   15.6918 C   0  0  0  0  0  0  0  0  0  0  0  0
   41.0256   11.1022   16.4605 C   0  0  0  0  0  0  0  0  0  0  0  0
   43.6349   14.0148   16.9115 S   0  0  0  0  0  0  0  0  0  0  0  0
   43.3498   15.3005   15.7589 C   0  0  0  0  0  0  0  0  0  0  0  0
   44.0200   16.5916   16.0412 C   0  0  0  0  0  0  0  0  0  0  0  0
   43.8365   17.5417   15.2565 O   0  0  0  0  0  0  0  0  0  0  0  0
   44.7454   16.6882   17.0472 O   0  0  0  0  0  0  0  0  0  0  0  0
   40.5266   16.6078   14.7894 H   0  0  0  0  0  0  0  0  0  0  0  0
   40.1242   15.2474   13.7565 H   0  0  0  0  0  0  0  0  0  0  0  0
   44.4045   11.1428   16.9718 H   0  0  0  0  0  0  0  0  0  0  0  0
   43.9058    8.8395   17.7604 H   0  0  0  0  0  0  0  0  0  0  0  0
   41.6101    8.0176   17.8062 H   0  0  0  0  0  0  0  0  0  0  0  0
   38.6792   10.0318   16.7500 H   0  0  0  0  0  0  0  0  0  0  0  0
   38.9507    7.4783   17.5163 H   0  0  0  0  0  0  0  0  0  0  0  0
   36.9302    8.3427   16.3371 H   0  0  0  0  0  0  0  0  0  0  0  0
   37.8103    8.3977   14.8328 H   0  0  0  0  0  0  0  0  0  0  0  0
   37.0605    5.8763   16.3997 H   0  0  0  0  0  0  0  0  0  0  0  0
   36.4352    6.3737   14.8463 H   0  0  0  0  0  0  0  0  0  0  0  0
   37.3215    3.0424   14.5217 H   0  0  0  0  0  0  0  0  0  0  0  0
   37.4832    2.6678   12.8134 H   0  0  0  0  0  0  0  0  0  0  0  0
   39.6640    3.3573   15.8030 H   0  0  0  0  0  0  0  0  0  0  0  0
   41.8696    2.3464   16.1823 H   0  0  0  0  0  0  0  0  0  0  0  0
   42.7125    0.6060   14.6066 H   0  0  0  0  0  0  0  0  0  0  0  0
   41.3511   -0.0092   12.6085 H   0  0  0  0  0  0  0  0  0  0  0  0
   39.2048    1.1427   12.1457 H   0  0  0  0  0  0  0  0  0  0  0  0
   39.7123    5.2798   16.4418 H   0  0  0  0  0  0  0  0  0  0  0  0
   40.5062    5.2898   14.8680 H   0  0  0  0  0  0  0  0  0  0  0  0
   40.3084    7.7221   14.7442 H   0  0  0  0  0  0  0  0  0  0  0  0
   41.0791    7.0760   16.1602 H   0  0  0  0  0  0  0  0  0  0  0  0
   40.2237   11.7307   16.0990 H   0  0  0  0  0  0  0  0  0  0  0  0
  1  2  2  0
  2  3  1  0
  2  4  1  0
  4  5  1  0
  4 38  1  0
  4 39  1  0
  5  6  1  0
  6  7  1  0
  6 34  2  0
  7  8  1  0
  7  9  2  0
  9 10  1  0
  9 33  1  0
 10 11  2  0
 10 32  1  0
 11 12  1  0
 11 40  1  0
 12 13  2  0
 12 41  1  0
 13 14  1  0
 13 42  1  0
 14 15  1  0
 14 32  2  0
 15 16  1  0
 15 43  1  0
 16 17  1  0
 16 31  1  0
 16 44  1  0
 17 18  1  0
 17 45  1  0
 17 46  1  0
 18 19  1  0
 18 47  1  0
 18 48  1  0
 19 20  1  0
 19 30  1  0
 20 21  2  0
 20 22  2  0
 20 23  1  0
 23 24  1  0
 23 49  1  0
 23 50  1  0
 24 25  2  0
 24 29  1  0
 25 26  1  0
 25 51  1  0
 26 27  2  0
 26 52  1  0
 27 28  1  0
 27 53  1  0
 28 29  2  0
 28 54  1  0
 29 55  1  0
 30 31  1  0
 30 56  1  0
 30 57  1  0
 31 58  1  0
 31 59  1  0
 32 60  1  0
 33 34  1  0
 34 35  1  0
 35 36  2  0
 35 37  1  0
M  CHG  2   3  -1  37  -1
M  END
>  <s_m_entry_id>  (1) 
520

>  <s_m_Source_Path>  (1) 
/projects/mai/users/kmzp800_harry/pmx_colab/docking_jobs/ptp1b/glide-dock_SP_ptp1b_mcs_2

>  <s_m_Source_File>  (1) 
glide-dock_SP_ptp1b_mcs_2_pv.maegz

>  <i_m_Source_File_Index>  (1) 
5

>  <r_i_docking_score>  (1) 
-7.18376470251061

>  <r_i_glide_gscore>  (1) 
-7.18376470251061

>  <r_i_glide_emodel>  (1) 
-101.275890689717

>  <index_string>  (1) 
3:0:0

$$$$
