19:0:0
     RDKit          3D

 47 49  0  0  1  0  0  0  0  0999 V2000
  -15.1653  -19.3359  -25.8034 C   0  0  0  0  0  0  0  0  0  0  0  0
  -15.2482  -20.0829  -24.6134 C   0  0  0  0  0  0  0  0  0  0  0  0
  -14.8482  -19.9902  -27.0111 C   0  0  0  0  0  0  0  0  0  0  0  0
  -15.3433  -17.8623  -25.7781 C   0  0  0  0  0  0  0  0  0  0  0  0
  -14.9314  -21.4497  -24.6255 C   0  0  0  0  0  0  0  0  0  0  0  0
  -14.4956  -21.3477  -27.0105 C   0  0  0  0  0  0  0  0  0  0  0  0
  -14.4951  -22.0852  -25.8122 C   0  0  0  0  0  0  0  0  0  0  0  0
  -16.0482  -17.2571  -24.7325 N   0  0  0  0  0  0  0  0  0  0  0  0
  -16.2371  -15.9377  -24.5960 C   0  0  0  0  0  0  0  0  0  0  0  0
  -14.8482  -17.1458  -26.7437 N   0  0  0  0  0  0  0  0  0  0  0  0
  -14.9849  -15.7541  -26.7386 C   0  0  0  0  0  0  0  0  0  0  0  0
  -15.6482  -15.0875  -25.6838 C   0  0  0  0  0  0  0  0  0  0  0  0
  -15.7203  -13.6763  -25.6768 C   0  0  0  0  0  0  0  0  0  0  0  0
  -15.1108  -12.9445  -26.7197 C   0  0  0  0  0  0  0  0  0  0  0  0
  -14.4482  -13.6094  -27.7659 C   0  0  0  0  0  0  0  0  0  0  0  0
  -14.4077  -15.0131  -27.7869 C   0  0  0  0  0  0  0  0  0  0  0  0
  -16.8481  -15.4765  -23.6416 O   0  0  0  0  0  0  0  0  0  0  0  0
  -14.0787  -23.5575  -25.7842 C   0  0  0  0  0  0  0  0  0  0  0  0
  -15.2481  -24.3727  -25.7642 O   0  0  0  0  0  0  0  0  0  0  0  0
  -15.1642  -11.5953  -26.7386 F   0  0  0  0  0  0  0  0  0  0  0  0
  -16.1392  -24.2735  -26.8763 C   0  0  0  0  0  0  0  0  0  0  0  0
  -16.3968  -25.6682  -27.4484 C   0  0  0  0  0  0  0  0  0  0  0  0
  -17.2482  -25.5381  -28.5756 O   0  0  0  0  0  0  0  0  0  0  0  0
  -17.5846  -26.7891  -29.1487 C   0  0  0  0  0  0  0  0  0  0  0  0
  -13.2482  -23.8098  -24.5054 C   0  0  0  0  0  0  0  0  0  0  0  0
  -13.1838  -24.0477  -26.9528 C   0  0  0  0  0  0  0  0  0  0  0  0
  -15.5262  -19.6211  -23.6773 H   0  0  0  0  0  0  0  0  0  0  0  0
  -14.7959  -19.4440  -27.9417 H   0  0  0  0  0  0  0  0  0  0  0  0
  -15.0062  -21.9891  -23.6951 H   0  0  0  0  0  0  0  0  0  0  0  0
  -14.1993  -21.7983  -27.9386 H   0  0  0  0  0  0  0  0  0  0  0  0
  -16.4860  -17.8523  -24.0408 H   0  0  0  0  0  0  0  0  0  0  0  0
  -16.2276  -13.1559  -24.8763 H   0  0  0  0  0  0  0  0  0  0  0  0
  -13.9865  -13.0367  -28.5574 H   0  0  0  0  0  0  0  0  0  0  0  0
  -13.9002  -15.5217  -28.5935 H   0  0  0  0  0  0  0  0  0  0  0  0
  -15.7687  -23.6340  -27.6748 H   0  0  0  0  0  0  0  0  0  0  0  0
  -17.0715  -23.8181  -26.5498 H   0  0  0  0  0  0  0  0  0  0  0  0
  -16.8482  -26.3095  -26.6905 H   0  0  0  0  0  0  0  0  0  0  0  0
  -15.4537  -26.1279  -27.7474 H   0  0  0  0  0  0  0  0  0  0  0  0
  -18.2343  -26.6340  -30.0101 H   0  0  0  0  0  0  0  0  0  0  0  0
  -18.1174  -27.4187  -28.4349 H   0  0  0  0  0  0  0  0  0  0  0  0
  -16.6944  -27.3198  -29.4889 H   0  0  0  0  0  0  0  0  0  0  0  0
  -12.4483  -23.0738  -24.4238 H   0  0  0  0  0  0  0  0  0  0  0  0
  -13.8393  -23.7545  -23.5950 H   0  0  0  0  0  0  0  0  0  0  0  0
  -12.7496  -24.7727  -24.5065 H   0  0  0  0  0  0  0  0  0  0  0  0
  -12.2060  -23.5727  -26.9490 H   0  0  0  0  0  0  0  0  0  0  0  0
  -12.9951  -25.1171  -26.8515 H   0  0  0  0  0  0  0  0  0  0  0  0
  -13.6199  -23.9195  -27.9386 H   0  0  0  0  0  0  0  0  0  0  0  0
  1  2  2  0
  1  3  1  0
  1  4  1  0
  2  5  1  0
  2 27  1  0
  3  6  2  0
  3 28  1  0
  4  8  1  0
  4 10  2  0
  5  7  2  0
  5 29  1  0
  6  7  1  0
  6 30  1  0
  7 18  1  0
  8  9  1  0
  8 31  1  0
  9 12  1  0
  9 17  2  0
 10 11  1  0
 11 12  2  0
 11 16  1  0
 12 13  1  0
 13 14  2  0
 13 32  1  0
 14 15  1  0
 14 20  1  0
 15 16  2  0
 15 33  1  0
 16 34  1  0
 18 19  1  0
 18 25  1  0
 18 26  1  0
 19 21  1  0
 21 22  1  0
 21 35  1  0
 21 36  1  0
 22 23  1  0
 22 37  1  0
 22 38  1  0
 23 24  1  0
 24 39  1  0
 24 40  1  0
 24 41  1  0
 25 42  1  0
 25 43  1  0
 25 44  1  0
 26 45  1  0
 26 46  1  0
 26 47  1  0
M  END
>  <s_m_entry_id>  (1) 
434

>  <Name>  (1) 
5p

>  <IC50[nM]>  (1) 
20

>  <s_m_Source_Path>  (1) 
/projects/mai/users/kmzp800_harry/pmx_colab/docking_jobs/tnks2

>  <s_m_Source_File>  (1) 
tnks2_lig.sdf

>  <i_m_Source_File_Index>  (1) 
20

>  <s_m_job_name>  (1) 
glide-dock_SP_tnks2_no_cons

>  <r_i_docking_score>  (1) 
-10.6681071788421

>  <r_i_glide_gscore>  (1) 
-10.6681071788421

>  <r_i_glide_emodel>  (1) 
-67.1734179443375

>  <index_string>  (1) 
19:0:0

$$$$
