43:0:0
     RDKit          3D

 54 59  0  0  1  0  0  0  0  0999 V2000
   -8.0928   -1.6821   13.9582 O   0  0  0  0  0  0  0  0  0  0  0  0
   -7.0473   -2.9412   14.5939 S   0  0  0  0  0  0  0  0  0  0  0  0
   -7.7474   -4.4480   15.1474 O   0  0  0  0  0  0  0  0  0  0  0  0
   -6.0455   -2.2250   15.9462 C   0  0  0  0  0  0  0  0  0  0  0  0
   -4.6205   -2.7919   15.9354 C   0  0  0  0  0  0  0  0  0  0  0  0
   -3.8702   -2.4027   14.7228 N   0  0  0  0  0  0  0  0  0  0  0  0
   -4.5951   -2.3244   13.4434 C   0  0  0  0  0  0  0  0  0  0  0  0
   -5.7709   -3.3283   13.3565 C   0  0  0  0  0  0  0  0  0  0  0  0
   -2.5282   -2.1020   14.8077 C   0  0  0  0  0  0  0  0  0  0  0  0
   -1.9370   -1.0806   14.0605 C   0  0  0  0  0  0  0  0  0  0  0  0
   -0.5631   -0.8273   14.2091 C   0  0  0  0  0  0  0  0  0  0  0  0
    0.2229   -1.5844   15.0905 C   0  0  0  0  0  0  0  0  0  0  0  0
    1.5913   -1.3476   15.3089 N   0  0  0  0  0  0  0  0  0  0  0  0
    2.5439   -0.4686   14.7575 C   0  0  0  0  0  0  0  0  0  0  0  0
    2.2196    0.3566   13.7233 N   0  0  0  0  0  0  0  0  0  0  0  0
    3.1236    1.2396   13.2222 C   0  0  0  0  0  0  0  0  0  0  0  0
    4.4210    1.2990   13.7154 C   0  0  0  0  0  0  0  0  0  0  0  0
    4.7503    0.4900   14.7657 N   0  0  0  0  0  0  0  0  0  0  0  0
    5.8894    0.3855   15.5018 C   0  0  0  0  0  0  0  0  0  0  0  0
    5.5741   -0.5086   16.5160 C   0  0  0  0  0  0  0  0  0  0  0  0
    4.3847   -1.0546   16.3925 N   0  0  0  0  0  0  0  0  0  0  0  0
    3.8295   -0.4128   15.3285 C   0  0  0  0  0  0  0  0  0  0  0  0
    2.6555    2.1582   12.1369 C   0  0  0  0  0  0  0  0  0  0  0  0
    3.5556    2.6324   11.1673 C   0  0  0  0  0  0  0  0  0  0  0  0
    3.1317    3.4547   10.1296 C   0  0  0  0  0  0  0  0  0  0  0  0
    1.7841    3.8075   10.0352 C   0  0  0  0  0  0  0  0  0  0  0  0
    0.9670    4.5788    9.1473 C   0  0  0  0  0  0  0  0  0  0  0  0
   -0.2911    4.5854    9.5398 N   0  0  0  0  0  0  0  0  0  0  0  0
   -0.3270    3.9266   10.5760 N   0  0  0  0  0  0  0  0  0  0  0  0
    0.8672    3.3708   10.9941 C   0  0  0  0  0  0  0  0  0  0  0  0
    1.3111    2.5575   12.0370 C   0  0  0  0  0  0  0  0  0  0  0  0
   -0.3842   -2.6134   15.8103 C   0  0  0  0  0  0  0  0  0  0  0  0
   -1.7506   -2.8713   15.6811 C   0  0  0  0  0  0  0  0  0  0  0  0
   -6.0389   -1.1417   15.8143 H   0  0  0  0  0  0  0  0  0  0  0  0
   -6.5594   -2.4378   16.8771 H   0  0  0  0  0  0  0  0  0  0  0  0
   -4.6806   -3.8790   16.0150 H   0  0  0  0  0  0  0  0  0  0  0  0
   -4.0740   -2.4546   16.8044 H   0  0  0  0  0  0  0  0  0  0  0  0
   -4.9600   -1.3131   13.3103 H   0  0  0  0  0  0  0  0  0  0  0  0
   -3.9288   -2.5216   12.6094 H   0  0  0  0  0  0  0  0  0  0  0  0
   -6.2365   -3.3044   12.3778 H   0  0  0  0  0  0  0  0  0  0  0  0
   -5.4237   -4.3519   13.5287 H   0  0  0  0  0  0  0  0  0  0  0  0
   -2.5326   -0.4723   13.3923 H   0  0  0  0  0  0  0  0  0  0  0  0
   -0.1265   -0.0179   13.6499 H   0  0  0  0  0  0  0  0  0  0  0  0
    2.0563   -1.9808   15.9412 H   0  0  0  0  0  0  0  0  0  0  0  0
    5.1955    1.9649   13.3323 H   0  0  0  0  0  0  0  0  0  0  0  0
    6.7746    0.9342   15.2311 H   0  0  0  0  0  0  0  0  0  0  0  0
    6.1667   -0.7991   17.3732 H   0  0  0  0  0  0  0  0  0  0  0  0
    4.6035    2.3503   11.2256 H   0  0  0  0  0  0  0  0  0  0  0  0
    3.8376    3.8067    9.4028 H   0  0  0  0  0  0  0  0  0  0  0  0
    1.2443    5.1167    8.2564 H   0  0  0  0  0  0  0  0  0  0  0  0
   -1.2036    3.8069   11.0639 H   0  0  0  0  0  0  0  0  0  0  0  0
    0.5994    2.2576   12.7944 H   0  0  0  0  0  0  0  0  0  0  0  0
    0.1988   -3.2194   16.4879 H   0  0  0  0  0  0  0  0  0  0  0  0
   -2.2036   -3.6638   16.2503 H   0  0  0  0  0  0  0  0  0  0  0  0
  1  2  2  0
  2  3  2  0
  2  4  1  0
  2  8  1  0
  4  5  1  0
  4 34  1  0
  4 35  1  0
  5  6  1  0
  5 36  1  0
  5 37  1  0
  6  7  1  0
  6  9  1  0
  7  8  1  0
  7 38  1  0
  7 39  1  0
  8 40  1  0
  8 41  1  0
  9 10  2  0
  9 33  1  0
 10 11  1  0
 10 42  1  0
 11 12  2  0
 11 43  1  0
 12 13  1  0
 12 32  1  0
 13 14  1  0
 13 44  1  0
 14 15  2  0
 14 22  1  0
 15 16  1  0
 16 17  2  0
 16 23  1  0
 17 18  1  0
 17 45  1  0
 18 19  1  0
 18 22  1  0
 19 20  2  0
 19 46  1  0
 20 21  1  0
 20 47  1  0
 21 22  2  0
 23 24  2  0
 23 31  1  0
 24 25  1  0
 24 48  1  0
 25 26  2  0
 25 49  1  0
 26 27  1  0
 26 30  1  0
 27 28  2  0
 27 50  1  0
 28 29  1  0
 29 30  1  0
 29 51  1  0
 30 31  2  0
 31 52  1  0
 32 33  2  0
 32 53  1  0
 33 54  1  0
M  END
>  <s_m_entry_id>  (1) 
2070

>  <IC50[nM]>  (1) 
2.1

>  <s_m_Source_Path>  (1) 
/projects/mai/users/kmzp800_harry/pmx_colab/docking_jobs/syk

>  <s_m_Source_File>  (1) 
tnks2_lig.sdf

>  <i_m_Source_File_Index>  (1) 
39

>  <s_m_job_name>  (1) 
glide-dock_SP_syk_single_compound_mcs_8

>  <r_i_docking_score>  (1) 
-6.16565679544692

>  <r_i_glide_gscore>  (1) 
-6.16565679544692

>  <r_i_glide_emodel>  (1) 
-50.5769195556641

>  <index_string>  (1) 
43:0:0

$$$$
