1:0:0
     RDKit          3D

 46 49  0  0  1  0  0  0  0  0999 V2000
   34.4470   39.5410   25.8700 N   0  0  0  0  0  0  0  0  0  0  0  0
   34.3760   39.0300   24.5380 C   0  0  0  0  0  0  0  0  0  0  0  0
   34.0900   39.8740   23.5110 N   0  0  0  0  0  0  0  0  0  0  0  0
   34.0130   39.4220   22.2330 C   0  0  0  0  0  0  0  0  0  0  0  0
   34.2270   38.0740   21.9620 C   0  0  0  0  0  0  0  0  0  0  0  0
   34.1600   37.5810   20.6650 C   0  0  0  0  0  0  0  0  0  0  0  0
   34.3890   36.2270   20.4230 C   0  0  0  0  0  0  0  0  0  0  0  0
   34.6520   35.3690   21.5140 C   0  0  0  0  0  0  0  0  0  0  0  0
   34.7970   34.1320   21.3150 O   0  0  0  0  0  0  0  0  0  0  0  0
   34.7240   35.8730   22.7870 N   0  0  0  0  0  0  0  0  0  0  0  0
   35.0110   34.9740   23.9010 C   0  0  0  0  0  0  0  0  0  0  0  0
   34.5190   37.2050   23.0280 C   0  0  0  0  0  0  0  0  0  0  0  0
   34.5850   37.7070   24.2920 N   0  0  0  0  0  0  0  0  0  0  0  0
   34.7730   38.7080   27.0180 C   0  0  0  0  0  0  0  0  0  0  0  0
   35.9370   39.3170   27.7820 C   0  0  0  0  0  0  0  0  0  0  0  0
   33.5560   38.6040   27.9230 C   0  0  0  0  0  0  0  0  0  0  0  0
   31.0600   36.8620   26.1470 C   0  0  0  0  0  0  0  0  0  0  0  0
   30.5900   38.1240   26.0430 N   0  0  0  0  0  0  0  0  0  0  0  0
   31.4530   38.8870   26.6910 N   0  0  0  0  0  0  0  0  0  0  0  0
   32.4080   38.1170   27.1770 N   0  0  0  0  0  0  0  0  0  0  0  0
   32.2070   36.8520   26.8570 N   0  0  0  0  0  0  0  0  0  0  0  0
   34.3080   35.7640   19.1020 O   0  0  0  0  0  0  0  0  0  0  0  0
   35.3570   35.7770   18.1730 C   0  0  0  0  0  0  0  0  0  0  0  0
   36.6620   35.9610   18.6470 C   0  0  0  0  0  0  0  0  0  0  0  0
   37.7430   35.9710   17.7620 C   0  0  0  0  0  0  0  0  0  0  0  0
   37.5290   35.7890   16.3940 C   0  0  0  0  0  0  0  0  0  0  0  0
   38.5770   35.8000   15.5370 F   0  0  0  0  0  0  0  0  0  0  0  0
   36.2340   35.5820   15.9120 C   0  0  0  0  0  0  0  0  0  0  0  0
   35.1480   35.5700   16.7930 C   0  0  0  0  0  0  0  0  0  0  0  0
   33.9100   35.3190   16.3020 F   0  0  0  0  0  0  0  0  0  0  0  0
   34.2594   40.5419   26.0246 H   0  0  0  0  0  0  0  0  0  0  0  0
   33.7821   40.1194   21.4142 H   0  0  0  0  0  0  0  0  0  0  0  0
   33.9266   38.2579   19.8299 H   0  0  0  0  0  0  0  0  0  0  0  0
   34.8424   35.5021   24.8511 H   0  0  0  0  0  0  0  0  0  0  0  0
   34.3478   34.0982   23.8456 H   0  0  0  0  0  0  0  0  0  0  0  0
   36.0590   34.6444   23.8456 H   0  0  0  0  0  0  0  0  0  0  0  0
   35.0602   37.7032   26.6745 H   0  0  0  0  0  0  0  0  0  0  0  0
   35.7559   39.2222   28.8628 H   0  0  0  0  0  0  0  0  0  0  0  0
   36.8652   38.7890   27.5181 H   0  0  0  0  0  0  0  0  0  0  0  0
   36.0325   40.3806   27.5181 H   0  0  0  0  0  0  0  0  0  0  0  0
   33.7751   37.9076   28.7458 H   0  0  0  0  0  0  0  0  0  0  0  0
   33.3234   39.6019   28.3230 H   0  0  0  0  0  0  0  0  0  0  0  0
   30.5779   35.9723   25.7157 H   0  0  0  0  0  0  0  0  0  0  0  0
   36.8371   36.0987   19.7242 H   0  0  0  0  0  0  0  0  0  0  0  0
   38.7637   36.1224   18.1431 H   0  0  0  0  0  0  0  0  0  0  0  0
   36.0681   35.4279   14.8356 H   0  0  0  0  0  0  0  0  0  0  0  0
  1 14  1  0
  1  2  1  0
  1 31  1  0
  2  3  2  0
  2 13  1  0
  3  4  1  0
  4  5  2  0
  4 32  1  0
  5 12  1  0
  5  6  1  0
  6  7  2  0
  6 33  1  0
  7  8  1  0
  7 22  1  0
  8 10  1  0
  8  9  2  0
 10 12  1  0
 10 11  1  0
 11 34  1  0
 11 35  1  0
 11 36  1  0
 12 13  2  0
 14 15  1  0
 14 16  1  0
 14 37  1  0
 15 38  1  0
 15 39  1  0
 15 40  1  0
 16 20  1  0
 16 41  1  0
 16 42  1  0
 17 21  2  0
 17 18  1  0
 17 43  1  0
 18 19  2  0
 19 20  1  0
 20 21  1  0
 22 23  1  0
 23 24  2  0
 23 29  1  0
 24 25  1  0
 24 44  1  0
 25 26  2  0
 25 45  1  0
 26 27  1  0
 26 28  1  0
 28 29  2  0
 28 46  1  0
 29 30  1  0
M  END
>  <s_m_entry_id>  (1) 
1355

>  <MODEL>  (1) 
1

>  <REMARK>  (1) 
 VINA RESULT:    -8.497      0.000      0.000
 INTER + INTRA:         -12.195
 INTER:                 -10.980
 INTRA:                  -1.214
 UNBOUND:                -1.214
  Name = /scratch/kmzp800/tmpj_xvpnex/tmppxvt518r.pdb
  7 active torsions:
  status: ('A' for Active; 'I' for Inactive)
    1  A    between atoms: N3_4  and  C2_5
    2  A    between atoms: C2_5  and  C3_6
    3  A    between atoms: C3_6  and  N4_7
    4  A    between atoms: C3_6  and  C18_29
    5  A    between atoms: C8_13  and  O1_14
    6  A    between atoms: O1_14  and  C9_15
    7  A    between atoms: N6_25  and  C16_26
                            x       y       z     vdW  Elec       q    Type
                         _______ _______ _______ _____ _____    ______ ____

>  <TORSDO>  (1) 
F 5

>  <grid_id>  (1) 
p38-prepared

>  <grid_path>  (1) 
/projects/mai/users/kmzp800_harry/pmx_colab/docking_jobs/p38/vina_docking/input_files/p38_vina.pdbqt

>  <grid_filename>  (1) 
p38_vina.pdbqt

>  <docking_score>  (1) 
-8.497

>  <compound_name>  (1) 
lig_p38a_3fmh

>  <index_string>  (1) 
1:0:0

>  <s_m_Source_Path>  (1) 
/projects/mai/users/kmzp800_harry/pmx_colab/docking_jobs/p38

>  <s_m_Source_File>  (1) 
p38_confs_vina_naive.sdf

>  <i_m_Source_File_Index>  (1) 
2

$$$$
