32:0:0
     RDKit          3D

 52 55  0  0  1  0  0  0  0  0999 V2000
   34.1200   36.1110   20.5700 C   0  0  0  0  0  0  0  0  0  0  0  0
   33.6410   37.2640   21.1900 C   0  0  0  0  0  0  0  0  0  0  0  0
   33.5840   37.3330   22.5760 C   0  0  0  0  0  0  0  0  0  0  0  0
   33.1210   38.4760   23.2220 C   0  0  0  0  0  0  0  0  0  0  0  0
   33.0830   38.5130   24.5800 N   0  0  0  0  0  0  0  0  0  0  0  0
   33.4920   37.4490   25.3240 C   0  0  0  0  0  0  0  0  0  0  0  0
   33.4440   37.4990   26.7510 N   0  0  0  0  0  0  0  0  0  0  0  0
   33.9430   36.3230   24.7080 N   0  0  0  0  0  0  0  0  0  0  0  0
   34.0010   36.2370   23.3500 C   0  0  0  0  0  0  0  0  0  0  0  0
   34.4510   35.0990   22.7350 N   0  0  0  0  0  0  0  0  0  0  0  0
   34.8680   33.9580   23.5460 C   0  0  0  0  0  0  0  0  0  0  0  0
   34.5040   35.0110   21.3680 C   0  0  0  0  0  0  0  0  0  0  0  0
   34.8770   33.9390   20.8180 O   0  0  0  0  0  0  0  0  0  0  0  0
   33.0070   38.6760   27.4890 C   0  0  0  0  0  0  0  0  0  0  0  0
   33.7850   39.9150   27.0090 C   0  0  0  0  0  0  0  0  0  0  0  0
   34.4070   40.7130   28.1540 C   0  0  0  0  0  0  0  0  0  0  0  0
   35.1690   39.8180   29.0230 N   0  0  0  0  0  0  0  0  0  0  0  0
   36.4820   40.1850   29.4730 C   0  0  0  0  0  0  0  0  0  0  0  0
   37.1270   39.4210   30.2390 O   0  0  0  0  0  0  0  0  0  0  0  0
   37.1090   41.4700   29.0470 C   0  0  0  0  0  0  0  0  0  0  0  0
   34.5750   38.5550   29.4740 C   0  0  0  0  0  0  0  0  0  0  0  0
   33.1290   38.4170   28.9950 C   0  0  0  0  0  0  0  0  0  0  0  0
   34.1570   36.0760   19.1690 O   0  0  0  0  0  0  0  0  0  0  0  0
   36.3170   35.7650   16.1900 C   0  0  0  0  0  0  0  0  0  0  0  0
   35.1870   35.8290   17.0100 C   0  0  0  0  0  0  0  0  0  0  0  0
   35.3210   36.0070   18.3910 C   0  0  0  0  0  0  0  0  0  0  0  0
   36.6110   36.1520   18.9460 C   0  0  0  0  0  0  0  0  0  0  0  0
   36.7810   36.3970   20.2680 F   0  0  0  0  0  0  0  0  0  0  0  0
   37.7370   36.0880   18.1210 C   0  0  0  0  0  0  0  0  0  0  0  0
   37.5920   35.8870   16.7460 C   0  0  0  0  0  0  0  0  0  0  0  0
   38.6860   35.8240   15.9510 F   0  0  0  0  0  0  0  0  0  0  0  0
   33.3085   38.1183   20.5821 H   0  0  0  0  0  0  0  0  0  0  0  0
   32.7875   39.3451   22.6360 H   0  0  0  0  0  0  0  0  0  0  0  0
   33.7316   36.6646   27.2820 H   0  0  0  0  0  0  0  0  0  0  0  0
   34.7750   34.2124   24.6121 H   0  0  0  0  0  0  0  0  0  0  0  0
   34.2279   33.0929   23.3183 H   0  0  0  0  0  0  0  0  0  0  0  0
   35.9151   33.7095   23.3183 H   0  0  0  0  0  0  0  0  0  0  0  0
   31.9447   38.8830   27.2922 H   0  0  0  0  0  0  0  0  0  0  0  0
   34.5893   39.5841   26.3355 H   0  0  0  0  0  0  0  0  0  0  0  0
   33.0677   40.5759   26.5004 H   0  0  0  0  0  0  0  0  0  0  0  0
   35.0781   41.4810   27.7418 H   0  0  0  0  0  0  0  0  0  0  0  0
   33.6085   41.1941   28.7379 H   0  0  0  0  0  0  0  0  0  0  0  0
   37.3930   42.0519   29.9362 H   0  0  0  0  0  0  0  0  0  0  0  0
   38.0054   41.2589   28.4453 H   0  0  0  0  0  0  0  0  0  0  0  0
   36.3910   42.0466   28.4453 H   0  0  0  0  0  0  0  0  0  0  0  0
   35.1662   37.7182   29.0737 H   0  0  0  0  0  0  0  0  0  0  0  0
   34.5783   38.5437   30.5739 H   0  0  0  0  0  0  0  0  0  0  0  0
   32.5033   39.1436   29.5341 H   0  0  0  0  0  0  0  0  0  0  0  0
   32.7966   37.3878   29.1954 H   0  0  0  0  0  0  0  0  0  0  0  0
   36.2018   35.6184   15.1059 H   0  0  0  0  0  0  0  0  0  0  0  0
   34.1846   35.7387   16.5660 H   0  0  0  0  0  0  0  0  0  0  0  0
   38.7416   36.1963   18.5559 H   0  0  0  0  0  0  0  0  0  0  0  0
  1  2  2  0
  1 12  1  0
  1 23  1  0
  2  3  1  0
  3  4  2  0
  3  9  1  0
  4  5  1  0
  5  6  2  0
  6  7  1  0
  6  8  1  0
  7 14  1  0
  8  9  2  0
  9 10  1  0
 10 11  1  0
 10 12  1  0
 12 13  2  0
 14 22  1  0
 14 15  1  0
 15 16  1  0
 16 17  1  0
 17 18  1  0
 17 21  1  0
 18 19  2  0
 18 20  1  0
 21 22  1  0
 23 26  1  0
 24 30  2  0
 24 25  1  0
 25 26  2  0
 26 27  1  0
 27 28  1  0
 27 29  2  0
 29 30  1  0
 30 31  1  0
  2 32  1  0
  4 33  1  0
  7 34  1  0
 11 35  1  0
 11 36  1  0
 11 37  1  0
 14 38  1  0
 15 39  1  0
 15 40  1  0
 16 41  1  0
 16 42  1  0
 20 43  1  0
 20 44  1  0
 20 45  1  0
 21 46  1  0
 21 47  1  0
 22 48  1  0
 22 49  1  0
 24 50  1  0
 25 51  1  0
 29 52  1  0
M  END
>  <s_m_entry_id>  (1) 
82

>  <MODEL>  (1) 
25

>  <REMARK>  (1) 
 VINA RESULT:    -8.426      1.663      2.096
 INTER + INTRA:          -7.263
 INTER:                  -7.888
 INTRA:                   0.625
 UNBOUND:                 2.641
  Name = /scratch/kmzp800/tmpqnh3rphy/tmpjm0ib_o7.pdb
  5 active torsions:
  status: ('A' for Active; 'I' for Inactive)
    1  A    between atoms: C3_3  and  O1_4
    2  A    between atoms: O1_4  and  C4_5
    3  A    between atoms: N2_11  and  C9_12
    4  A    between atoms: C12_16  and  C13_18
    5  A    between atoms: N5_23  and  C17_24
                            x       y       z     vdW  Elec       q    Type
                         _______ _______ _______ _____ _____    ______ ____

>  <TORSDO>  (1) 
F 3

>  <grid_id>  (1) 
p38-prepared

>  <grid_path>  (1) 
/projects/mai/users/kmzp800_harry/pmx_colab/docking_jobs/p38/vina_docking/input_files/p38_vina.pdbqt

>  <grid_filename>  (1) 
p38_vina.pdbqt

>  <docking_score>  (1) 
-8.426

>  <compound_name>  (1) 
lig_p38a_2ee

>  <index_string>  (1) 
32:0:0

$$$$
