7:0:0
     RDKit          3D

 47 49  0  0  1  0  0  0  0  0999 V2000
   33.6280   35.2930   19.6360 C   0  0  0  0  0  0  0  0  0  0  0  0
   33.6020   36.5920   20.1580 C   0  0  0  0  0  0  0  0  0  0  0  0
   33.2580   36.7960   21.4880 C   0  0  0  0  0  0  0  0  0  0  0  0
   33.2300   38.0750   22.0370 C   0  0  0  0  0  0  0  0  0  0  0  0
   32.8910   38.2390   23.3420 N   0  0  0  0  0  0  0  0  0  0  0  0
   32.5750   37.1720   24.1270 C   0  0  0  0  0  0  0  0  0  0  0  0
   32.2180   37.3540   25.5030 N   0  0  0  0  0  0  0  0  0  0  0  0
   32.5960   35.9170   23.6040 N   0  0  0  0  0  0  0  0  0  0  0  0
   32.9300   35.6990   22.3020 C   0  0  0  0  0  0  0  0  0  0  0  0
   32.9480   34.4320   21.7810 N   0  0  0  0  0  0  0  0  0  0  0  0
   32.6010   33.2960   22.6310 C   0  0  0  0  0  0  0  0  0  0  0  0
   33.2850   34.2170   20.4700 C   0  0  0  0  0  0  0  0  0  0  0  0
   33.2930   33.0450   19.9990 O   0  0  0  0  0  0  0  0  0  0  0  0
   32.1570   38.6420   26.1880 C   0  0  0  0  0  0  0  0  0  0  0  0
   31.4980   39.6890   25.3030 C   0  0  0  0  0  0  0  0  0  0  0  0
   33.5460   39.0850   26.6300 C   0  0  0  0  0  0  0  0  0  0  0  0
   34.3890   37.7820   27.5090 S   0  0  0  0  0  6  0  0  0  0  0  0
   35.1430   36.9130   26.5430 O   0  0  0  0  0  0  0  0  0  0  0  0
   33.3770   36.9470   28.2400 O   0  0  0  0  0  0  0  0  0  0  0  0
   35.5250   38.4820   28.6860 C   0  0  0  0  0  0  0  0  0  0  0  0
   33.9490   35.0510   18.2920 O   0  0  0  0  0  0  0  0  0  0  0  0
   36.3110   35.9800   15.6090 C   0  0  0  0  0  0  0  0  0  0  0  0
   35.1430   35.6020   16.2760 C   0  0  0  0  0  0  0  0  0  0  0  0
   35.1410   35.4390   17.6660 C   0  0  0  0  0  0  0  0  0  0  0  0
   36.3380   35.6270   18.3840 C   0  0  0  0  0  0  0  0  0  0  0  0
   36.3960   35.3960   19.7190 F   0  0  0  0  0  0  0  0  0  0  0  0
   37.5050   36.0050   17.7120 C   0  0  0  0  0  0  0  0  0  0  0  0
   37.4890   36.1900   16.3270 C   0  0  0  0  0  0  0  0  0  0  0  0
   38.6210   36.5560   15.6790 F   0  0  0  0  0  0  0  0  0  0  0  0
   33.8535   37.4491   19.5160 H   0  0  0  0  0  0  0  0  0  0  0  0
   33.4811   38.9483   21.4171 H   0  0  0  0  0  0  0  0  0  0  0  0
   31.9870   36.5125   26.0501 H   0  0  0  0  0  0  0  0  0  0  0  0
   32.6902   33.5880   23.6878 H   0  0  0  0  0  0  0  0  0  0  0  0
   31.5668   32.9846   22.4227 H   0  0  0  0  0  0  0  0  0  0  0  0
   33.2847   32.4598   22.4227 H   0  0  0  0  0  0  0  0  0  0  0  0
   31.5395   38.5269   27.0910 H   0  0  0  0  0  0  0  0  0  0  0  0
   31.0177   40.4520   25.9332 H   0  0  0  0  0  0  0  0  0  0  0  0
   32.2600   40.1645   24.6679 H   0  0  0  0  0  0  0  0  0  0  0  0
   30.7397   39.2076   24.6679 H   0  0  0  0  0  0  0  0  0  0  0  0
   34.1350   39.3582   25.7421 H   0  0  0  0  0  0  0  0  0  0  0  0
   33.4385   39.9473   27.3044 H   0  0  0  0  0  0  0  0  0  0  0  0
   35.1750   38.2664   29.7063 H   0  0  0  0  0  0  0  0  0  0  0  0
   36.5223   38.0416   28.5397 H   0  0  0  0  0  0  0  0  0  0  0  0
   35.5800   39.5708   28.5397 H   0  0  0  0  0  0  0  0  0  0  0  0
   36.3020   36.1122   14.5170 H   0  0  0  0  0  0  0  0  0  0  0  0
   34.2186   35.4313   15.7047 H   0  0  0  0  0  0  0  0  0  0  0  0
   38.4376   36.1570   18.2751 H   0  0  0  0  0  0  0  0  0  0  0  0
  1  2  2  0
  1 12  1  0
  1 21  1  0
  2  3  1  0
  3  4  2  0
  3  9  1  0
  4  5  1  0
  5  6  2  0
  6  7  1  0
  6  8  1  0
  7 14  1  0
  8  9  2  0
  9 10  1  0
 10 11  1  0
 10 12  1  0
 12 13  2  0
 14 15  1  0
 14 16  1  0
 16 17  1  0
 17 19  2  0
 17 20  1  0
 17 18  2  0
 21 24  1  0
 22 23  2  0
 22 28  1  0
 23 24  1  0
 24 25  2  0
 25 26  1  0
 25 27  1  0
 27 28  2  0
 28 29  1  0
  2 30  1  0
  4 31  1  0
  7 32  1  0
 11 33  1  0
 11 34  1  0
 11 35  1  0
 14 36  1  0
 15 37  1  0
 15 38  1  0
 15 39  1  0
 16 40  1  0
 16 41  1  0
 20 42  1  0
 20 43  1  0
 20 44  1  0
 22 45  1  0
 23 46  1  0
 27 47  1  0
M  END
>  <s_m_entry_id>  (1) 
56

>  <MODEL>  (1) 
5

>  <REMARK>  (1) 
 VINA RESULT:   -14.634      1.607      2.112
 INTER + INTRA:         -10.041
 INTER:                  -9.884
 INTRA:                  -0.157
 UNBOUND:                 8.871
  Name = /scratch/kmzp800/tmp767r_g__/tmpide5mm5u.pdb
  8 active torsions:
  status: ('A' for Active; 'I' for Inactive)
    1  A    between atoms: C3_3  and  O1_4
    2  A    between atoms: O1_4  and  C4_5
    3  A    between atoms: N2_11  and  C9_12
    4  A    between atoms: C9_12  and  C10_13
    5  A    between atoms: C9_12  and  C11_14
    6  A    between atoms: C11_14  and  S1_15
    7  A    between atoms: S1_15  and  C12_18
    8  A    between atoms: N4_21  and  C14_22
                            x       y       z     vdW  Elec       q    Type
                         _______ _______ _______ _____ _____    ______ ____

>  <TORSDO>  (1) 
F 5

>  <grid_id>  (1) 
p38-prepared

>  <grid_path>  (1) 
/projects/mai/users/kmzp800_harry/pmx_colab/docking_jobs/p38/vina_docking/input_files/p38_vina.pdbqt

>  <grid_filename>  (1) 
p38_vina.pdbqt

>  <docking_score>  (1) 
-14.634

>  <compound_name>  (1) 
lig_p38a_3flq

>  <index_string>  (1) 
7:0:0

$$$$
