32:0:0
     RDKit          3D

 52 55  0  0  1  0  0  0  0  0999 V2000
   32.7458   34.7362   14.3766 F   0  0  0  0  0  0  0  0  0  0  0  0
   33.4632   34.9297   15.5077 C   0  0  0  0  0  0  0  0  0  0  0  0
   34.8620   34.9231   15.4886 C   0  0  0  0  0  0  0  0  0  0  0  0
   35.6082   35.1496   16.6510 C   0  0  0  0  0  0  0  0  0  0  0  0
   36.9587   35.2048   16.5718 F   0  0  0  0  0  0  0  0  0  0  0  0
   34.9522   35.2285   17.8938 C   0  0  0  0  0  0  0  0  0  0  0  0
   33.5399   35.2245   17.9222 C   0  0  0  0  0  0  0  0  0  0  0  0
   32.8170   35.1493   16.7215 C   0  0  0  0  0  0  0  0  0  0  0  0
   35.7076   35.2350   19.0376 O   0  0  0  0  0  0  0  0  0  0  0  0
   35.1791   35.8255   20.1450 C   0  0  0  0  0  0  0  0  0  0  0  0
   35.2644   37.1605   20.2666 C   0  0  0  0  0  0  0  0  0  0  0  0
   34.5522   34.9944   21.1739 C   0  0  0  0  0  0  0  0  0  0  0  0
   34.3337   33.8011   20.9728 O   0  0  0  0  0  0  0  0  0  0  0  0
   34.2042   35.6184   22.3387 N   0  0  0  0  0  0  0  0  0  0  0  0
   33.6563   34.8192   23.4454 C   0  0  0  0  0  0  0  0  0  0  0  0
   34.2812   37.0392   22.5231 C   0  0  0  0  0  0  0  0  0  0  0  0
   34.7970   37.8262   21.4729 C   0  0  0  0  0  0  0  0  0  0  0  0
   33.8838   37.6378   23.6673 N   0  0  0  0  0  0  0  0  0  0  0  0
   34.0041   38.9613   23.7675 C   0  0  0  0  0  0  0  0  0  0  0  0
   34.4617   39.7884   22.8262 N   0  0  0  0  0  0  0  0  0  0  0  0
   34.8540   39.2179   21.6692 C   0  0  0  0  0  0  0  0  0  0  0  0
   33.6321   39.5497   24.9573 N   0  0  0  0  0  0  0  0  0  0  0  0
   33.2570   38.8468   26.1755 C   0  0  0  0  0  0  0  0  0  0  0  0
   34.4702   38.1660   26.8476 C   0  0  0  0  0  0  0  0  0  0  0  0
   34.0744   37.5335   28.1885 C   0  0  0  0  0  0  0  0  0  0  0  0
   33.4987   38.5740   29.0483 N   0  0  0  0  0  0  0  0  0  0  0  0
   32.2529   39.1185   28.4922 C   0  0  0  0  0  0  0  0  0  0  0  0
   32.5640   39.8145   27.1591 C   0  0  0  0  0  0  0  0  0  0  0  0
   34.1279   39.0289   30.1615 C   0  0  0  0  0  0  0  0  0  0  0  0
   35.2094   38.5793   30.5438 O   0  0  0  0  0  0  0  0  0  0  0  0
   33.4731   40.1377   30.9911 C   0  0  0  0  0  0  0  0  0  0  0  0
   35.3521   34.7502   14.5562 H   0  0  0  0  0  0  0  0  0  0  0  0
   32.9896   35.2744   18.8498 H   0  0  0  0  0  0  0  0  0  0  0  0
   31.7417   35.1506   16.7540 H   0  0  0  0  0  0  0  0  0  0  0  0
   35.7379   37.7586   19.5018 H   0  0  0  0  0  0  0  0  0  0  0  0
   33.8415   33.7493   23.3512 H   0  0  0  0  0  0  0  0  0  0  0  0
   34.0978   35.1133   24.3997 H   0  0  0  0  0  0  0  0  0  0  0  0
   32.5774   34.9691   23.5128 H   0  0  0  0  0  0  0  0  0  0  0  0
   35.2431   39.8713   20.9051 H   0  0  0  0  0  0  0  0  0  0  0  0
   33.7528   40.5528   25.0361 H   0  0  0  0  0  0  0  0  0  0  0  0
   32.5373   38.0714   25.9071 H   0  0  0  0  0  0  0  0  0  0  0  0
   35.2608   38.8984   27.0145 H   0  0  0  0  0  0  0  0  0  0  0  0
   34.8849   37.3896   26.2059 H   0  0  0  0  0  0  0  0  0  0  0  0
   34.9403   37.0374   28.6308 H   0  0  0  0  0  0  0  0  0  0  0  0
   33.3354   36.7479   28.0270 H   0  0  0  0  0  0  0  0  0  0  0  0
   31.5430   38.3042   28.3383 H   0  0  0  0  0  0  0  0  0  0  0  0
   31.7537   39.8212   29.1559 H   0  0  0  0  0  0  0  0  0  0  0  0
   31.6482   40.2043   26.7171 H   0  0  0  0  0  0  0  0  0  0  0  0
   33.1999   40.6788   27.3620 H   0  0  0  0  0  0  0  0  0  0  0  0
   33.3793   41.0597   30.4126 H   0  0  0  0  0  0  0  0  0  0  0  0
   34.0850   40.3627   31.8681 H   0  0  0  0  0  0  0  0  0  0  0  0
   32.4839   39.8307   31.3383 H   0  0  0  0  0  0  0  0  0  0  0  0
  1  2  1  0
  2  8  2  0
  2  3  1  0
  3  4  2  0
  3 32  1  0
  4  5  1  0
  4  6  1  0
  6  7  2  0
  6  9  1  0
  7  8  1  0
  7 33  1  0
  8 34  1  0
  9 10  1  0
 10 11  2  0
 10 12  1  0
 11 17  1  0
 11 35  1  0
 12 13  2  0
 12 14  1  0
 14 15  1  0
 14 16  1  0
 15 36  1  0
 15 37  1  0
 15 38  1  0
 16 17  2  0
 16 18  1  0
 17 21  1  0
 18 19  2  0
 19 20  1  0
 19 22  1  0
 20 21  2  0
 21 39  1  0
 22 23  1  0
 22 40  1  0
 23 28  1  0
 23 24  1  0
 23 41  1  0
 24 25  1  0
 24 42  1  0
 24 43  1  0
 25 26  1  0
 25 44  1  0
 25 45  1  0
 26 27  1  0
 26 29  1  0
 27 28  1  0
 27 46  1  0
 27 47  1  0
 28 48  1  0
 28 49  1  0
 29 30  2  0
 29 31  1  0
 31 50  1  0
 31 51  1  0
 31 52  1  0
M  END
>  <s_m_entry_id>  (1) 
278

>  <i_f3d_flags>  (1) 
0

>  <r_lp_tautomer_probability>  (1) 
1

>  <r_epik_Ionization_Penalty>  (1) 
  0.0000

>  <r_epik_State_Penalty>  (1) 
  0.0000

>  <i_epik_Tot_Q>  (1) 
0

>  <s_m_job_name>  (1) 
glide-dock_SP_p38_core_cons_top_1

>  <r_i_docking_score>  (1) 
-6.30314237483146

>  <r_i_glide_gscore>  (1) 
-6.30314237483146

>  <r_i_glide_emodel>  (1) 
-46.5324019388273

>  <index_string>  (1) 
32:0:0

$$$$
