8:0:0
     RDKit          3D

 41 43  0  0  1  0  0  0  0  0999 V2000
   41.3896   17.4862   11.7972 O   0  0  0  0  0  0  0  0  0  0  0  0
   40.5916   17.3568   12.7571 C   0  0  0  0  0  0  0  0  0  0  0  0
   39.4578   17.8855   12.8046 O   0  0  0  0  0  0  0  0  0  0  0  0
   41.0146   16.5176   13.9719 C   0  0  0  0  0  0  0  0  0  0  0  0
   42.1895   15.7519   13.7118 O   0  0  0  0  0  0  0  0  0  0  0  0
   42.5553   14.9387   14.7312 C   0  0  0  0  0  0  0  0  0  0  0  0
   42.1467   13.5894   14.8752 C   0  0  0  0  0  0  0  0  0  0  0  0
   40.9837   12.8233   13.6126 Br  0  0  0  0  0  0  0  0  0  0  0  0
   42.6054   12.9246   15.9806 C   0  0  0  0  0  0  0  0  0  0  0  0
   43.6006   13.9993   16.9202 S   0  0  0  0  0  0  0  0  0  0  0  0
   43.3568   15.3038   15.7777 C   0  0  0  0  0  0  0  0  0  0  0  0
   43.9917   16.5707   16.1039 C   0  0  0  0  0  0  0  0  0  0  0  0
   44.5836   16.6863   17.1953 O   0  0  0  0  0  0  0  0  0  0  0  0
   43.9247   17.5161   15.2940 O   0  0  0  0  0  0  0  0  0  0  0  0
   42.3462   11.5624   16.4469 C   0  0  0  0  0  0  0  0  0  0  0  0
   41.0496   11.0126   16.3544 C   0  0  0  0  0  0  0  0  0  0  0  0
   40.7894    9.6944   16.7665 C   0  0  0  0  0  0  0  0  0  0  0  0
   41.8158    8.9240   17.3363 C   0  0  0  0  0  0  0  0  0  0  0  0
   43.1081    9.4734   17.4961 C   0  0  0  0  0  0  0  0  0  0  0  0
   43.3727   10.7739   17.0125 C   0  0  0  0  0  0  0  0  0  0  0  0
   44.1290    8.7966   18.2170 N   0  0  0  0  0  0  0  0  0  0  0  0
   43.9597    8.1543   19.3933 C   0  0  0  0  0  0  0  0  0  0  0  0
   42.8566    7.8920   19.8711 O   0  0  0  0  0  0  0  0  0  0  0  0
   45.2087    7.7585   20.1420 C   0  0  0  0  0  0  0  0  0  0  0  0
   45.0962    7.0125   21.3387 C   0  0  0  0  0  0  0  0  0  0  0  0
   46.2365    6.6917   22.1004 C   0  0  0  0  0  0  0  0  0  0  0  0
   47.5070    7.1280   21.6848 C   0  0  0  0  0  0  0  0  0  0  0  0
   47.6367    7.8674   20.4941 C   0  0  0  0  0  0  0  0  0  0  0  0
   46.4973    8.1599   19.7191 C   0  0  0  0  0  0  0  0  0  0  0  0
   41.1820   17.1886   14.8156 H   0  0  0  0  0  0  0  0  0  0  0  0
   40.1885   15.8591   14.2440 H   0  0  0  0  0  0  0  0  0  0  0  0
   40.2357   11.5975   15.9536 H   0  0  0  0  0  0  0  0  0  0  0  0
   39.7954    9.2826   16.6694 H   0  0  0  0  0  0  0  0  0  0  0  0
   41.5889    7.9233   17.6770 H   0  0  0  0  0  0  0  0  0  0  0  0
   44.3583   11.1970   17.1211 H   0  0  0  0  0  0  0  0  0  0  0  0
   45.0751    9.0343   17.9712 H   0  0  0  0  0  0  0  0  0  0  0  0
   44.1261    6.6862   21.6876 H   0  0  0  0  0  0  0  0  0  0  0  0
   46.1314    6.1236   23.0131 H   0  0  0  0  0  0  0  0  0  0  0  0
   48.3809    6.8962   22.2755 H   0  0  0  0  0  0  0  0  0  0  0  0
   48.6123    8.1979   20.1687 H   0  0  0  0  0  0  0  0  0  0  0  0
   46.6355    8.6890   18.7948 H   0  0  0  0  0  0  0  0  0  0  0  0
  1  2  2  0
  2  3  1  0
  2  4  1  0
  4  5  1  0
  4 30  1  0
  4 31  1  0
  5  6  1  0
  6 11  2  0
  6  7  1  0
  7  8  1  0
  7  9  2  0
  9 10  1  0
  9 15  1  0
 10 11  1  0
 11 12  1  0
 12 13  2  0
 12 14  1  0
 15 20  1  0
 15 16  2  0
 16 17  1  0
 16 32  1  0
 17 18  2  0
 17 33  1  0
 18 19  1  0
 18 34  1  0
 19 20  2  0
 19 21  1  0
 20 35  1  0
 21 22  1  0
 21 36  1  0
 22 23  2  0
 22 24  1  0
 24 29  1  0
 24 25  2  0
 25 26  1  0
 25 37  1  0
 26 27  2  0
 26 38  1  0
 27 28  1  0
 27 39  1  0
 28 29  2  0
 28 40  1  0
 29 41  1  0
M  CHG  2   3  -1  14  -1
M  END
>  <s_m_entry_id>  (1) 
483

>  <i_f3d_flags>  (1) 
0

>  <r_epik_Ionization_Penalty>  (1) 
  0.0001

>  <r_epik_State_Penalty>  (1) 
  0.0000

>  <i_epik_Tot_Q>  (1) 
-2

>  <s_m_job_name>  (1) 
glide-dock_SP_ptp1b_core_cons

>  <r_lp_tautomer_probability>  (1) 
1

>  <r_i_docking_score>  (1) 
-6.572958053783

>  <r_i_glide_gscore>  (1) 
-6.572958053783

>  <r_i_glide_emodel>  (1) 
-86.0223340428582

>  <index_string>  (1) 
8:0:0

$$$$
