1:0:0
     RDKit          3D

 48 51  0  0  1  0  0  0  0  0999 V2000
    6.1910    0.1230   15.8300 C   0  0  0  0  0  0  0  0  0  0  0  0
    5.8030    0.9170   14.8010 N   0  0  0  0  0  0  0  0  0  0  0  0
    4.5250    0.5590   14.5890 C   0  0  0  0  0  0  0  0  0  0  0  0
    3.6600    1.0790   13.6310 C   0  0  0  0  0  0  0  0  0  0  0  0
    4.1010    2.1100   12.7340 N   0  0  0  0  0  0  0  0  0  0  0  0
    2.3930    0.5740   13.5800 N   0  0  0  0  0  0  0  0  0  0  0  0
    1.9630   -0.4120   14.4310 C   0  0  0  0  0  0  0  0  0  0  0  0
    2.8590   -0.9200   15.3920 C   0  0  0  0  0  0  0  0  0  0  0  0
    4.1090   -0.4010   15.4200 N   0  0  0  0  0  0  0  0  0  0  0  0
    5.1390   -0.7020   16.2210 C   0  0  0  0  0  0  0  0  0  0  0  0
    3.3340    2.7440   11.7010 C   0  0  0  0  0  0  0  0  0  0  0  0
    3.8980    3.0970   10.4670 C   0  0  0  0  0  0  0  0  0  0  0  0
    3.1190    3.7130    9.4870 C   0  0  0  0  0  0  0  0  0  0  0  0
    1.7620    3.9860    9.7230 C   0  0  0  0  0  0  0  0  0  0  0  0
    1.1910    3.6360   10.9560 C   0  0  0  0  0  0  0  0  0  0  0  0
    1.9840    3.0150   11.9360 C   0  0  0  0  0  0  0  0  0  0  0  0
    0.9660    4.6030    8.7510 O   0  0  0  0  0  0  0  0  0  0  0  0
    0.7070    6.0000    8.7420 C   0  0  0  0  0  0  0  0  0  0  0  0
   -0.1620    3.9100   11.1850 O   0  0  0  0  0  0  0  0  0  0  0  0
   -1.0600    2.9490   11.7230 C   0  0  0  0  0  0  0  0  0  0  0  0
    0.5790   -0.9230   14.3330 C   0  0  0  0  0  0  0  0  0  0  0  0
   -0.3570   -0.2630   13.5240 C   0  0  0  0  0  0  0  0  0  0  0  0
   -1.6670   -0.7390   13.4240 C   0  0  0  0  0  0  0  0  0  0  0  0
   -2.0630   -1.8820   14.1320 C   0  0  0  0  0  0  0  0  0  0  0  0
   -1.1280   -2.5420   14.9420 C   0  0  0  0  0  0  0  0  0  0  0  0
    0.1820   -2.0660   15.0420 C   0  0  0  0  0  0  0  0  0  0  0  0
   -3.4440   -2.3820   14.0260 C   0  0  0  0  0  0  0  0  0  0  0  0
   -4.1220   -2.6020   15.0660 O   0  0  0  0  0  0  0  0  0  0  0  0
   -4.0300   -2.6220   12.7500 N   0  0  0  0  0  0  0  0  0  0  0  0
    7.1907    0.1296   16.2888 H   0  0  0  0  0  0  0  0  0  0  0  0
    5.0741    2.4290   12.8444 H   0  0  0  0  0  0  0  0  0  0  0  0
    2.5540   -1.7098   16.0943 H   0  0  0  0  0  0  0  0  0  0  0  0
    5.1518   -1.4509   17.0266 H   0  0  0  0  0  0  0  0  0  0  0  0
    4.9598    2.8873   10.2705 H   0  0  0  0  0  0  0  0  0  0  0  0
    3.5712    3.9868    8.5224 H   0  0  0  0  0  0  0  0  0  0  0  0
    1.5354    2.7385   12.9015 H   0  0  0  0  0  0  0  0  0  0  0  0
    0.6390    6.3670    9.7767 H   0  0  0  0  0  0  0  0  0  0  0  0
    1.5239    6.5210    8.2211 H   0  0  0  0  0  0  0  0  0  0  0  0
   -0.2423    6.1936    8.2211 H   0  0  0  0  0  0  0  0  0  0  0  0
   -1.0236    2.9879   12.8217 H   0  0  0  0  0  0  0  0  0  0  0  0
   -2.0820    3.1708   11.3819 H   0  0  0  0  0  0  0  0  0  0  0  0
   -0.7695    1.9444   11.3819 H   0  0  0  0  0  0  0  0  0  0  0  0
   -0.0580    0.6355   12.9643 H   0  0  0  0  0  0  0  0  0  0  0  0
   -2.3922   -0.2132   12.7855 H   0  0  0  0  0  0  0  0  0  0  0  0
   -1.4275   -3.4400   15.5022 H   0  0  0  0  0  0  0  0  0  0  0  0
    0.9068   -2.5914   15.6812 H   0  0  0  0  0  0  0  0  0  0  0  0
   -4.9966   -2.9718   12.6848 H   0  0  0  0  0  0  0  0  0  0  0  0
   -3.4871   -2.4458   11.8926 H   0  0  0  0  0  0  0  0  0  0  0  0
  1 10  2  0
  1  2  1  0
  2  3  2  0
  3  9  1  0
  3  4  1  0
  4  5  1  0
  4  6  2  0
  5 11  1  0
  6  7  1  0
  7  8  2  0
  7 21  1  0
  8  9  1  0
  9 10  1  0
 11 16  1  0
 11 12  2  0
 12 13  1  0
 13 14  2  0
 14 15  1  0
 14 17  1  0
 15 19  1  0
 15 16  2  0
 17 18  1  0
 19 20  1  0
 21 26  1  0
 21 22  2  0
 22 23  1  0
 23 24  2  0
 24 25  1  0
 24 27  1  0
 25 26  2  0
 27 28  2  0
 27 29  1  0
  1 30  1  0
  5 31  1  0
  8 32  1  0
 10 33  1  0
 12 34  1  0
 13 35  1  0
 16 36  1  0
 18 37  1  0
 18 38  1  0
 18 39  1  0
 20 40  1  0
 20 41  1  0
 20 42  1  0
 22 43  1  0
 23 44  1  0
 25 45  1  0
 26 46  1  0
 29 47  1  0
 29 48  1  0
M  END
>  <s_m_entry_id>  (1) 
2

>  <MODEL>  (1) 
1

>  <REMARK>  (1) 
 VINA RESULT:    -8.874      0.000      0.000
 INTER + INTRA:         -11.909
 INTER:                 -11.468
 INTRA:                  -0.441
 UNBOUND:                -0.441
  Name = /scratch/kmzp800/tmpqx_nxik2/tmp5zsafzpc.pdb
  7 active torsions:
  status: ('A' for Active; 'I' for Inactive)
    1  A    between atoms: N2_5  and  C4_6
    2  A    between atoms: C7_9  and  O1_10
    3  A    between atoms: O1_10  and  C8_11
    4  A    between atoms: C9_12  and  O2_13
    5  A    between atoms: O2_13  and  C10_14
    6  A    between atoms: C12_17  and  C13_18
    7  A    between atoms: C16_21  and  C17_22
                            x       y       z     vdW  Elec       q    Type
                         _______ _______ _______ _____ _____    ______ ____

>  <TORSDO>  (1) 
F 5

>  <grid_id>  (1) 
syk-prepared

>  <grid_path>  (1) 
syk_vina.pdbqt

>  <grid_filename>  (1) 
syk_vina.pdbqt

>  <docking_score>  (1) 
-8.874

>  <compound_name>  (1) 
CHEMBL3259820

>  <index_string>  (1) 
1:0:0

>  <s_m_Source_Path>  (1) 
/projects/mai/users/kmzp800_harry/pmx_colab/docking_jobs/syk/vina_prep/output

>  <s_m_Source_File>  (1) 
ptp1b_docked_conformers.sdf

>  <i_m_Source_File_Index>  (1) 
2

$$$$
