12:0:0
     RDKit          3D

 53 55  0  0  1  0  0  0  0  0999 V2000
   39.3831   17.8864   12.4983 O   0  0  0  0  0  0  0  0  0  0  0  0
   40.5355   17.4041   12.5555 C   0  0  0  0  0  0  0  0  0  0  0  0
   41.3840   17.4863   11.6383 O   0  0  0  0  0  0  0  0  0  0  0  0
   40.9240   16.6699   13.8383 C   0  0  0  0  0  0  0  0  0  0  0  0
   42.0966   15.8987   13.6223 O   0  0  0  0  0  0  0  0  0  0  0  0
   42.3761   15.0214   14.6083 C   0  0  0  0  0  0  0  0  0  0  0  0
   41.8901   13.6916   14.6526 C   0  0  0  0  0  0  0  0  0  0  0  0
   40.7238   13.0871   13.2940 Br  0  0  0  0  0  0  0  0  0  0  0  0
   42.3375   12.9246   15.7001 C   0  0  0  0  0  0  0  0  0  0  0  0
   43.3844   13.8897   16.7104 S   0  0  0  0  0  0  0  0  0  0  0  0
   43.1582   15.3017   15.6943 C   0  0  0  0  0  0  0  0  0  0  0  0
   43.7881   16.5568   16.1151 C   0  0  0  0  0  0  0  0  0  0  0  0
   43.9000   17.4864   15.2885 O   0  0  0  0  0  0  0  0  0  0  0  0
   44.1881   16.6863   17.2906 O   0  0  0  0  0  0  0  0  0  0  0  0
   42.0717   11.5288   16.0593 C   0  0  0  0  0  0  0  0  0  0  0  0
   43.0524   10.7382   16.6999 C   0  0  0  0  0  0  0  0  0  0  0  0
   42.7853    9.3976   17.0387 C   0  0  0  0  0  0  0  0  0  0  0  0
   41.5430    8.8173   16.7187 C   0  0  0  0  0  0  0  0  0  0  0  0
   40.5531    9.5863   16.0673 C   0  0  0  0  0  0  0  0  0  0  0  0
   40.8256   10.9336   15.7677 C   0  0  0  0  0  0  0  0  0  0  0  0
   39.2969    9.0848   15.6934 N   0  0  0  0  0  0  0  0  0  0  0  0
   38.8961    7.7109   15.9665 C   0  0  0  0  0  0  0  0  0  0  0  0
   39.4459    6.6946   14.9449 C   0  0  0  0  0  0  0  0  0  0  0  0
   39.1166    5.2540   15.4016 C   0  0  0  0  0  0  0  0  0  0  0  0
   39.5034    4.2063   14.3427 C   0  0  0  0  0  0  0  0  0  0  0  0
   38.8559    4.5621   13.0811 N   0  0  0  0  0  0  0  0  0  0  0  0
   39.3367    5.8400   12.5444 C   0  0  0  0  0  0  0  0  0  0  0  0
   38.9172    6.9595   13.5130 C   0  0  0  0  0  0  0  0  0  0  0  0
   37.7846    3.8147   12.5741 C   0  0  0  0  0  0  0  0  0  0  0  0
   37.3479    2.7704   13.0587 O   0  0  0  0  0  0  0  0  0  0  0  0
   37.2641    4.3916   11.4706 O   0  0  0  0  0  0  0  0  0  0  0  0
   36.1967    3.7527   10.7892 C   0  0  0  0  0  0  0  0  0  0  0  0
   41.0959   17.4007   14.6300 H   0  0  0  0  0  0  0  0  0  0  0  0
   40.0924   16.0359   14.1499 H   0  0  0  0  0  0  0  0  0  0  0  0
   44.0218   11.1529   16.9357 H   0  0  0  0  0  0  0  0  0  0  0  0
   43.5420    8.8059   17.5318 H   0  0  0  0  0  0  0  0  0  0  0  0
   41.3734    7.7825   16.9737 H   0  0  0  0  0  0  0  0  0  0  0  0
   40.0469   11.5184   15.3083 H   0  0  0  0  0  0  0  0  0  0  0  0
   38.7137    9.6481   15.0857 H   0  0  0  0  0  0  0  0  0  0  0  0
   39.1947    7.4372   16.9788 H   0  0  0  0  0  0  0  0  0  0  0  0
   37.8070    7.6743   15.9636 H   0  0  0  0  0  0  0  0  0  0  0  0
   40.5334    6.7791   14.9145 H   0  0  0  0  0  0  0  0  0  0  0  0
   39.6309    5.0345   16.3373 H   0  0  0  0  0  0  0  0  0  0  0  0
   38.0493    5.1700   15.6107 H   0  0  0  0  0  0  0  0  0  0  0  0
   40.5839    4.1877   14.2011 H   0  0  0  0  0  0  0  0  0  0  0  0
   39.2278    3.2074   14.6840 H   0  0  0  0  0  0  0  0  0  0  0  0
   40.4254    5.8071   12.4732 H   0  0  0  0  0  0  0  0  0  0  0  0
   38.9863    6.0474   11.5357 H   0  0  0  0  0  0  0  0  0  0  0  0
   37.8292    7.0366   13.5271 H   0  0  0  0  0  0  0  0  0  0  0  0
   39.2910    7.9164   13.1472 H   0  0  0  0  0  0  0  0  0  0  0  0
   35.8848    4.3550    9.9357 H   0  0  0  0  0  0  0  0  0  0  0  0
   36.5038    2.7739   10.4184 H   0  0  0  0  0  0  0  0  0  0  0  0
   35.3358    3.6225   11.4464 H   0  0  0  0  0  0  0  0  0  0  0  0
  1  2  2  0
  2  3  1  0
  2  4  1  0
  4  5  1  0
  4 33  1  0
  4 34  1  0
  5  6  1  0
  6 11  2  0
  6  7  1  0
  7  8  1  0
  7  9  2  0
  9 10  1  0
  9 15  1  0
 10 11  1  0
 11 12  1  0
 12 13  2  0
 12 14  1  0
 15 20  1  0
 15 16  2  0
 16 17  1  0
 16 35  1  0
 17 18  2  0
 17 36  1  0
 18 19  1  0
 18 37  1  0
 19 20  2  0
 19 21  1  0
 20 38  1  0
 21 22  1  0
 21 39  1  0
 22 23  1  0
 22 40  1  0
 22 41  1  0
 23 28  1  0
 23 24  1  0
 23 42  1  0
 24 25  1  0
 24 43  1  0
 24 44  1  0
 25 26  1  0
 25 45  1  0
 25 46  1  0
 26 27  1  0
 26 29  1  0
 27 28  1  0
 27 47  1  0
 27 48  1  0
 28 49  1  0
 28 50  1  0
 29 30  2  0
 29 31  1  0
 31 32  1  0
 32 51  1  0
 32 52  1  0
 32 53  1  0
M  CHG  2   3  -1  14  -1
M  END
>  <s_m_entry_id>  (1) 
465

>  <i_f3d_flags>  (1) 
0

>  <r_epik_Ionization_Penalty>  (1) 
  0.0017

>  <r_epik_State_Penalty>  (1) 
  0.0010

>  <i_epik_Tot_Q>  (1) 
-2

>  <s_m_job_name>  (1) 
glide-dock_SP_ptp1b_no_cons

>  <r_i_docking_score>  (1) 
-8.00792220277728

>  <r_i_glide_gscore>  (1) 
-8.00892220277728

>  <r_i_glide_emodel>  (1) 
-114.671800398123

>  <index_string>  (1) 
12:0:0

$$$$
