38:0:0
     RDKit          3D

 54 59  0  0  1  0  0  0  0  0999 V2000
    5.8410   -0.4370   16.2820 C   0  0  0  0  0  0  0  0  0  0  0  0
    4.5870   -0.9560   16.2690 N   0  0  0  0  0  0  0  0  0  0  0  0
    3.9750   -0.2780   15.2830 C   0  0  0  0  0  0  0  0  0  0  0  0
    2.6580   -0.4310   14.8570 C   0  0  0  0  0  0  0  0  0  0  0  0
    1.7960   -1.3930   15.4840 N   0  0  0  0  0  0  0  0  0  0  0  0
    2.2290    0.3600   13.8310 N   0  0  0  0  0  0  0  0  0  0  0  0
    3.0440    1.2810   13.2250 C   0  0  0  0  0  0  0  0  0  0  0  0
    4.3710    1.4140   13.6750 C   0  0  0  0  0  0  0  0  0  0  0  0
    4.7720    0.6180   14.6940 N   0  0  0  0  0  0  0  0  0  0  0  0
    5.9630    0.5440   15.3020 C   0  0  0  0  0  0  0  0  0  0  0  0
    2.5270    2.1120   12.1180 C   0  0  0  0  0  0  0  0  0  0  0  0
    3.4240    2.6350   11.1500 C   0  0  0  0  0  0  0  0  0  0  0  0
    2.9610    3.4280   10.0850 C   0  0  0  0  0  0  0  0  0  0  0  0
    1.5950    3.6750   10.0220 C   0  0  0  0  0  0  0  0  0  0  0  0
    0.8390    4.3950    9.1270 C   0  0  0  0  0  0  0  0  0  0  0  0
   -0.4490    4.3030    9.5440 N   0  0  0  0  0  0  0  0  0  0  0  0
   -0.5240    3.5640   10.6470 N   0  0  0  0  0  0  0  0  0  0  0  0
    0.7240    3.1780   10.9430 C   0  0  0  0  0  0  0  0  0  0  0  0
    1.1450    2.3900   12.0090 C   0  0  0  0  0  0  0  0  0  0  0  0
    0.4250   -1.6650   15.1620 C   0  0  0  0  0  0  0  0  0  0  0  0
   -0.3480   -0.7860   14.3910 C   0  0  0  0  0  0  0  0  0  0  0  0
   -1.6800   -1.0870   14.0980 C   0  0  0  0  0  0  0  0  0  0  0  0
   -2.2670   -2.2730   14.5710 C   0  0  0  0  0  0  0  0  0  0  0  0
   -1.4850   -3.1490   15.3440 C   0  0  0  0  0  0  0  0  0  0  0  0
   -0.1530   -2.8470   15.6360 C   0  0  0  0  0  0  0  0  0  0  0  0
   -3.6420   -2.5840   14.2690 N   0  0  0  0  0  0  0  0  0  0  0  0
   -4.0260   -2.8950   12.8810 C   0  0  0  0  0  0  0  0  0  0  0  0
   -5.5260   -3.1350   12.7060 C   0  0  0  0  0  0  0  0  0  0  0  0
   -6.0900   -4.3360   13.8940 S   0  0  0  0  0  6  0  0  0  0  0  0
   -7.5810   -4.2360   14.0500 O   0  0  0  0  0  0  0  0  0  0  0  0
   -5.7190   -5.7200   13.4410 O   0  0  0  0  0  0  0  0  0  0  0  0
   -5.2910   -3.9740   15.4420 C   0  0  0  0  0  0  0  0  0  0  0  0
   -4.6340   -2.6050   15.3510 C   0  0  0  0  0  0  0  0  0  0  0  0
    6.6440   -0.7465   16.9672 H   0  0  0  0  0  0  0  0  0  0  0  0
    2.2069   -1.9482   16.2481 H   0  0  0  0  0  0  0  0  0  0  0  0
    5.0582    2.1393   13.2148 H   0  0  0  0  0  0  0  0  0  0  0  0
    6.8589    1.1396   15.0727 H   0  0  0  0  0  0  0  0  0  0  0  0
    4.4988    2.4164   11.2344 H   0  0  0  0  0  0  0  0  0  0  0  0
    3.6519    3.8361    9.3326 H   0  0  0  0  0  0  0  0  0  0  0  0
    1.2068    4.9395    8.2448 H   0  0  0  0  0  0  0  0  0  0  0  0
   -1.3786    3.3326   11.1733 H   0  0  0  0  0  0  0  0  0  0  0  0
    0.4266    1.9961   12.7430 H   0  0  0  0  0  0  0  0  0  0  0  0
    0.0972    0.1467   14.0143 H   0  0  0  0  0  0  0  0  0  0  0  0
   -2.2754   -0.3890   13.4911 H   0  0  0  0  0  0  0  0  0  0  0  0
   -1.9270   -4.0823   15.7229 H   0  0  0  0  0  0  0  0  0  0  0  0
    0.4451   -3.5431   16.2425 H   0  0  0  0  0  0  0  0  0  0  0  0
   -3.7306   -2.0513   12.2400 H   0  0  0  0  0  0  0  0  0  0  0  0
   -3.5130   -3.8275   12.6029 H   0  0  0  0  0  0  0  0  0  0  0  0
   -6.0669   -2.1894   12.8583 H   0  0  0  0  0  0  0  0  0  0  0  0
   -5.7164   -3.5128   11.6906 H   0  0  0  0  0  0  0  0  0  0  0  0
   -6.0368   -3.9723   16.2506 H   0  0  0  0  0  0  0  0  0  0  0  0
   -4.5295   -4.7386   15.6553 H   0  0  0  0  0  0  0  0  0  0  0  0
   -4.1349   -2.3785   16.3047 H   0  0  0  0  0  0  0  0  0  0  0  0
   -5.4073   -1.8515   15.1406 H   0  0  0  0  0  0  0  0  0  0  0  0
  1  2  1  0
  1 10  2  0
  2  3  2  0
  3  4  1  0
  3  9  1  0
  4  5  1  0
  4  6  2  0
  5 20  1  0
  6  7  1  0
  7  8  2  0
  7 11  1  0
  8  9  1  0
  9 10  1  0
 11 12  2  0
 11 19  1  0
 12 13  1  0
 13 14  2  0
 14 18  1  0
 14 15  1  0
 15 16  2  0
 16 17  1  0
 17 18  1  0
 18 19  2  0
 20 25  1  0
 20 21  2  0
 21 22  1  0
 22 23  2  0
 23 24  1  0
 23 26  1  0
 24 25  2  0
 26 33  1  0
 26 27  1  0
 27 28  1  0
 28 29  1  0
 29 30  2  0
 29 32  1  0
 29 31  2  0
 32 33  1  0
  1 34  1  0
  5 35  1  0
  8 36  1  0
 10 37  1  0
 12 38  1  0
 13 39  1  0
 15 40  1  0
 17 41  1  0
 19 42  1  0
 21 43  1  0
 22 44  1  0
 24 45  1  0
 25 46  1  0
 27 47  1  0
 27 48  1  0
 28 49  1  0
 28 50  1  0
 32 51  1  0
 32 52  1  0
 33 53  1  0
 33 54  1  0
M  END
>  <s_m_entry_id>  (1) 
1099

>  <MODEL>  (1) 
1

>  <REMARK>  (1) 
 VINA RESULT:   -10.337      0.000      0.000
 INTER + INTRA:         -12.337
 INTER:                 -12.005
 INTRA:                  -0.332
 UNBOUND:                -0.187
  Name = /scratch/kmzp800/tmp9vj7s7dj/tmpg5xtey9a.pdb
  3 active torsions:
  status: ('A' for Active; 'I' for Inactive)
    1  A    between atoms: N2_5  and  C4_6
    2  A    between atoms: C7_9  and  N3_10
    3  A    between atoms: C14_21  and  C15_22
                            x       y       z     vdW  Elec       q    Type
                         _______ _______ _______ _____ _____    ______ ____

>  <TORSDO>  (1) 
F 3

>  <grid_id>  (1) 
syk-prepared

>  <grid_path>  (1) 
syk_vina.pdbqt

>  <grid_filename>  (1) 
syk_vina.pdbqt

>  <docking_score>  (1) 
-10.337

>  <compound_name>  (1) 
CHEMBL3265033

>  <index_string>  (1) 
38:0:0

>  <s_m_Source_Path>  (1) 
/projects/mai/users/kmzp800_harry/pmx_colab/docking_jobs/syk/vina_prep/output

>  <s_m_Source_File>  (1) 
ptp1b_docked_conformers.sdf

>  <i_m_Source_File_Index>  (1) 
923

$$$$
