36:0:0
     RDKit          3D

 53 58  0  0  1  0  0  0  0  0999 V2000
    5.8300   -0.4530   16.2750 C   0  0  0  0  0  0  0  0  0  0  0  0
    4.5650   -0.9460   16.2480 N   0  0  0  0  0  0  0  0  0  0  0  0
    3.9750   -0.2500   15.2620 C   0  0  0  0  0  0  0  0  0  0  0  0
    2.6590   -0.3750   14.8250 C   0  0  0  0  0  0  0  0  0  0  0  0
    1.7740   -1.3230   15.4390 N   0  0  0  0  0  0  0  0  0  0  0  0
    2.2530    0.4340   13.8020 N   0  0  0  0  0  0  0  0  0  0  0  0
    3.0910    1.3420   13.2100 C   0  0  0  0  0  0  0  0  0  0  0  0
    4.4170    1.4470   13.6720 C   0  0  0  0  0  0  0  0  0  0  0  0
    4.7940    0.6350   14.6880 N   0  0  0  0  0  0  0  0  0  0  0  0
    5.9790    0.5340   15.3040 C   0  0  0  0  0  0  0  0  0  0  0  0
    2.5980    2.1920   12.1060 C   0  0  0  0  0  0  0  0  0  0  0  0
    3.5170    2.7350   11.1720 C   0  0  0  0  0  0  0  0  0  0  0  0
    3.0790    3.5490   10.1090 C   0  0  0  0  0  0  0  0  0  0  0  0
    1.7140    3.7940   10.0200 C   0  0  0  0  0  0  0  0  0  0  0  0
    0.9780    4.5310    9.1220 C   0  0  0  0  0  0  0  0  0  0  0  0
   -0.3200    4.4300    9.5050 N   0  0  0  0  0  0  0  0  0  0  0  0
   -0.4200    3.6700   10.5930 N   0  0  0  0  0  0  0  0  0  0  0  0
    0.8220    3.2790   10.9110 C   0  0  0  0  0  0  0  0  0  0  0  0
    1.2190    2.4720   11.9710 C   0  0  0  0  0  0  0  0  0  0  0  0
    0.4010   -1.5690   15.1040 C   0  0  0  0  0  0  0  0  0  0  0  0
   -0.1890   -2.7660   15.5190 C   0  0  0  0  0  0  0  0  0  0  0  0
   -1.5240   -3.0440   15.2130 C   0  0  0  0  0  0  0  0  0  0  0  0
   -2.2850   -2.1220   14.4860 C   0  0  0  0  0  0  0  0  0  0  0  0
   -1.6990   -0.9190   14.0670 C   0  0  0  0  0  0  0  0  0  0  0  0
   -0.3640   -0.6440   14.3740 C   0  0  0  0  0  0  0  0  0  0  0  0
   -3.7110   -2.4420   14.1700 C   0  0  0  0  0  0  0  0  0  0  0  0
   -3.8340   -3.8000   13.4770 C   0  0  0  0  0  0  0  0  0  0  0  0
   -5.3150   -4.1530   13.3350 C   0  0  0  0  0  0  0  0  0  0  0  0
   -5.9180   -4.2080   14.6050 O   0  0  0  0  0  0  0  0  0  0  0  0
   -5.9860   -2.8850   15.0800 C   0  0  0  0  0  0  0  0  0  0  0  0
   -4.5840   -2.3830   15.4250 C   0  0  0  0  0  0  0  0  0  0  0  0
    6.6213   -0.7848   16.9633 H   0  0  0  0  0  0  0  0  0  0  0  0
    2.1677   -1.8890   16.2042 H   0  0  0  0  0  0  0  0  0  0  0  0
    5.1214    2.1630   13.2236 H   0  0  0  0  0  0  0  0  0  0  0  0
    6.8878    1.1144   15.0865 H   0  0  0  0  0  0  0  0  0  0  0  0
    4.5898    2.5168   11.2795 H   0  0  0  0  0  0  0  0  0  0  0  0
    3.7867    3.9723    9.3810 H   0  0  0  0  0  0  0  0  0  0  0  0
    1.3663    5.0935    8.2601 H   0  0  0  0  0  0  0  0  0  0  0  0
   -1.2864    3.4284   11.0948 H   0  0  0  0  0  0  0  0  0  0  0  0
    0.4843    2.0648   12.6812 H   0  0  0  0  0  0  0  0  0  0  0  0
    0.4025   -3.4957   16.0915 H   0  0  0  0  0  0  0  0  0  0  0  0
   -1.9775   -3.9898   15.5444 H   0  0  0  0  0  0  0  0  0  0  0  0
   -2.2918   -0.1899   13.4952 H   0  0  0  0  0  0  0  0  0  0  0  0
    0.0903    0.3014   14.0425 H   0  0  0  0  0  0  0  0  0  0  0  0
   -4.0765   -1.6749   13.4714 H   0  0  0  0  0  0  0  0  0  0  0  0
   -3.3696   -3.7494   12.4811 H   0  0  0  0  0  0  0  0  0  0  0  0
   -3.3236   -4.5700   14.0741 H   0  0  0  0  0  0  0  0  0  0  0  0
   -5.8160   -3.3860   12.7262 H   0  0  0  0  0  0  0  0  0  0  0  0
   -5.4082   -5.1344   12.8470 H   0  0  0  0  0  0  0  0  0  0  0  0
   -6.4231   -2.2406   14.3030 H   0  0  0  0  0  0  0  0  0  0  0  0
   -6.6132   -2.8565   15.9832 H   0  0  0  0  0  0  0  0  0  0  0  0
   -4.1469   -3.0193   16.2086 H   0  0  0  0  0  0  0  0  0  0  0  0
   -4.6397   -1.3470   15.7906 H   0  0  0  0  0  0  0  0  0  0  0  0
  1  2  1  0
  1 10  2  0
  2  3  2  0
  3  4  1  0
  3  9  1  0
  4  5  1  0
  4  6  2  0
  5 20  1  0
  6  7  1  0
  7  8  2  0
  7 11  1  0
  8  9  1  0
  9 10  1  0
 11 12  2  0
 11 19  1  0
 12 13  1  0
 13 14  2  0
 14 18  1  0
 14 15  1  0
 15 16  2  0
 16 17  1  0
 17 18  1  0
 18 19  2  0
 20 21  2  0
 20 25  1  0
 21 22  1  0
 22 23  2  0
 23 24  1  0
 23 26  1  0
 24 25  2  0
 26 31  1  0
 26 27  1  0
 27 28  1  0
 28 29  1  0
 29 30  1  0
 30 31  1  0
  1 32  1  0
  5 33  1  0
  8 34  1  0
 10 35  1  0
 12 36  1  0
 13 37  1  0
 15 38  1  0
 17 39  1  0
 19 40  1  0
 21 41  1  0
 22 42  1  0
 24 43  1  0
 25 44  1  0
 26 45  1  0
 27 46  1  0
 27 47  1  0
 28 48  1  0
 28 49  1  0
 30 50  1  0
 30 51  1  0
 31 52  1  0
 31 53  1  0
M  END
>  <s_m_entry_id>  (1) 
1050

>  <MODEL>  (1) 
1

>  <REMARK>  (1) 
 VINA RESULT:   -10.057      0.000      0.000
 INTER + INTRA:         -12.095
 INTER:                 -11.696
 INTRA:                  -0.399
 UNBOUND:                -0.275
  Name = /scratch/kmzp800/tmpx19c2618/tmp92i1mh_r.pdb
  3 active torsions:
  status: ('A' for Active; 'I' for Inactive)
    1  A    between atoms: N2_5  and  C4_6
    2  A    between atoms: C7_9  and  C8_10
    3  A    between atoms: C15_19  and  C16_20
                            x       y       z     vdW  Elec       q    Type
                         _______ _______ _______ _____ _____    ______ ____

>  <TORSDO>  (1) 
F 3

>  <grid_id>  (1) 
syk-prepared

>  <grid_path>  (1) 
syk_vina.pdbqt

>  <grid_filename>  (1) 
syk_vina.pdbqt

>  <docking_score>  (1) 
-10.057

>  <compound_name>  (1) 
CHEMBL3265034

>  <index_string>  (1) 
36:0:0

>  <s_m_Source_Path>  (1) 
/projects/mai/users/kmzp800_harry/pmx_colab/docking_jobs/syk/vina_prep/output

>  <s_m_Source_File>  (1) 
ptp1b_docked_conformers.sdf

>  <i_m_Source_File_Index>  (1) 
874

$$$$
