25:0:0
     RDKit          3D

 45 47  0  0  1  0  0  0  0  0999 V2000
   34.3086   35.0785   21.1020 C   0  0  0  0  0  0  0  0  0  0  0  0
   33.9360   38.9758   23.8259 C   0  0  0  0  0  0  0  0  0  0  0  0
   34.7394   37.8804   21.5047 C   0  0  0  0  0  0  0  0  0  0  0  0
   35.1576   37.2301   20.2662 C   0  0  0  0  0  0  0  0  0  0  0  0
   34.0997   37.1012   22.4890 C   0  0  0  0  0  0  0  0  0  0  0  0
   34.9365   39.2463   21.7931 C   0  0  0  0  0  0  0  0  0  0  0  0
   34.9614   35.9046   20.0824 C   0  0  0  0  0  0  0  0  0  0  0  0
   33.2214   34.9308   23.2963 C   0  0  0  0  0  0  0  0  0  0  0  0
   34.5367   39.7935   22.9623 N   0  0  0  0  0  0  0  0  0  0  0  0
   34.1527   33.8694   20.9259 O   0  0  0  0  0  0  0  0  0  0  0  0
   33.8953   35.7058   22.2408 N   0  0  0  0  0  0  0  0  0  0  0  0
   33.7034   37.6800   23.6409 N   0  0  0  0  0  0  0  0  0  0  0  0
   33.5386   39.5493   25.0202 N   0  0  0  0  0  0  0  0  0  0  0  0
   35.6059   37.8512   19.5041 H   0  0  0  0  0  0  0  0  0  0  0  0
   35.4233   39.9040   21.0891 H   0  0  0  0  0  0  0  0  0  0  0  0
   32.9692   33.9057   23.0233 H   0  0  0  0  0  0  0  0  0  0  0  0
   33.8546   34.8836   24.1831 H   0  0  0  0  0  0  0  0  0  0  0  0
   32.2848   35.4126   23.5800 H   0  0  0  0  0  0  0  0  0  0  0  0
   33.7523   40.5343   25.1282 H   0  0  0  0  0  0  0  0  0  0  0  0
   32.7161   38.9699   26.0882 C   0  0  0  0  0  0  0  0  0  0  0  0
   33.4107   37.7303   26.7175 C   0  0  0  0  0  0  0  0  0  0  0  0
   32.5674   40.0590   27.1649 C   0  0  0  0  0  0  0  0  0  0  0  0
   31.3080   38.6188   25.5560 C   0  0  0  0  0  0  0  0  0  0  0  0
   31.9064   39.7467   27.9738 H   0  0  0  0  0  0  0  0  0  0  0  0
   33.5288   40.3203   27.6087 H   0  0  0  0  0  0  0  0  0  0  0  0
   32.1520   40.9695   26.7377 H   0  0  0  0  0  0  0  0  0  0  0  0
   30.6526   38.2842   26.3613 H   0  0  0  0  0  0  0  0  0  0  0  0
   30.8305   39.4821   25.0904 H   0  0  0  0  0  0  0  0  0  0  0  0
   31.3337   37.8181   24.8175 H   0  0  0  0  0  0  0  0  0  0  0  0
   32.7150   37.2475   27.8502 O   0  0  0  0  0  0  0  0  0  0  0  0
   34.4293   37.9769   27.0199 H   0  0  0  0  0  0  0  0  0  0  0  0
   33.4826   36.9012   26.0162 H   0  0  0  0  0  0  0  0  0  0  0  0
   33.1585   36.4769   28.1703 H   0  0  0  0  0  0  0  0  0  0  0  0
   35.2790   35.2410   18.9227 O   0  0  0  0  0  0  0  0  0  0  0  0
   37.9250   36.6069   15.9859 C   0  0  0  0  0  0  0  0  0  0  0  0
   38.4205   36.3493   17.2816 C   0  0  0  0  0  0  0  0  0  0  0  0
   37.5287   36.0022   18.3169 C   0  0  0  0  0  0  0  0  0  0  0  0
   36.1726   35.7369   18.0106 C   0  0  0  0  0  0  0  0  0  0  0  0
   35.7514   35.8280   16.6764 C   0  0  0  0  0  0  0  0  0  0  0  0
   36.5854   36.3489   15.6818 C   0  0  0  0  0  0  0  0  0  0  0  0
   38.7089   37.1493   15.0388 F   0  0  0  0  0  0  0  0  0  0  0  0
   39.4559   36.5568   17.5090 H   0  0  0  0  0  0  0  0  0  0  0  0
   37.9823   35.9240   19.5877 F   0  0  0  0  0  0  0  0  0  0  0  0
   34.7365   35.5494   16.4282 H   0  0  0  0  0  0  0  0  0  0  0  0
   36.2058   36.5397   14.6891 H   0  0  0  0  0  0  0  0  0  0  0  0
  1  7  1  0
  1 10  2  0
  1 11  1  0
  2  9  1  0
  2 12  2  0
  2 13  1  0
  3  4  1  0
  3  5  2  0
  3  6  1  0
  4  7  2  0
  4 14  1  0
  5 11  1  0
  5 12  1  0
  6  9  2  0
  6 15  1  0
  7 34  1  0
  8 11  1  0
  8 16  1  0
  8 17  1  0
  8 18  1  0
 13 19  1  0
 13 20  1  0
 20 21  1  0
 20 22  1  0
 20 23  1  0
 21 30  1  0
 21 31  1  0
 21 32  1  0
 22 24  1  0
 22 25  1  0
 22 26  1  0
 23 27  1  0
 23 28  1  0
 23 29  1  0
 30 33  1  0
 34 38  1  0
 35 36  2  0
 35 40  1  0
 35 41  1  0
 36 37  1  0
 36 42  1  0
 37 38  2  0
 37 43  1  0
 38 39  1  0
 39 40  2  0
 39 44  1  0
 40 45  1  0
M  END
>  <s_m_entry_id>  (1) 
843

>  <s_m_Source_Path>  (1) 
/projects/mai/users/kmzp800_harry/pmx_colab/docking_jobs/p38/glide-dock_SP_p38_mcs_docking_2

>  <s_m_Source_File>  (1) 
glide-dock_SP_p38_mcs_docking_2_pv.maegz

>  <i_m_Source_File_Index>  (1) 
27

>  <s_pdb_PDB_TITLE>  (1) 
MX MODEL

>  <r_i_docking_score>  (1) 
-7.03134356942808

>  <r_i_glide_gscore>  (1) 
-7.03134356942808

>  <r_i_glide_emodel>  (1) 
-39.1807692020064

>  <index_string>  (1) 
25:0:0

$$$$
