17:0:0
     RDKit          3D

 43 45  0  0  1  0  0  0  0  0999 V2000
   34.0500   39.5720   26.6640 N   0  0  0  0  0  0  0  0  0  0  0  0
   34.3540   38.6440   25.6160 C   0  0  0  0  0  0  0  0  0  0  0  0
   35.1850   37.5870   25.8400 N   0  0  0  0  0  0  0  0  0  0  0  0
   35.4780   36.7040   24.8510 C   0  0  0  0  0  0  0  0  0  0  0  0
   34.9250   36.8770   23.5860 C   0  0  0  0  0  0  0  0  0  0  0  0
   35.2050   35.9920   22.5510 C   0  0  0  0  0  0  0  0  0  0  0  0
   34.6390   36.1970   21.2880 C   0  0  0  0  0  0  0  0  0  0  0  0
   33.7790   37.2900   21.0940 C   0  0  0  0  0  0  0  0  0  0  0  0
   33.2550   37.4680   19.9600 O   0  0  0  0  0  0  0  0  0  0  0  0
   33.5110   38.1550   22.1230 N   0  0  0  0  0  0  0  0  0  0  0  0
   32.6180   39.2880   21.8970 C   0  0  0  0  0  0  0  0  0  0  0  0
   34.0700   37.9680   23.3600 C   0  0  0  0  0  0  0  0  0  0  0  0
   33.8060   38.8270   24.3850 N   0  0  0  0  0  0  0  0  0  0  0  0
   34.5690   39.4950   28.0280 C   0  0  0  0  0  0  0  0  0  0  0  0
   35.4200   40.7200   28.3440 C   0  0  0  0  0  0  0  0  0  0  0  0
   34.6080   41.7810   28.7450 O   0  0  0  0  0  0  0  0  0  0  0  0
   33.4290   39.3260   29.0240 C   0  0  0  0  0  0  0  0  0  0  0  0
   32.3070   40.0390   28.5990 O   0  0  0  0  0  0  0  0  0  0  0  0
   34.8810   35.3120   20.2250 O   0  0  0  0  0  0  0  0  0  0  0  0
   35.7270   35.5710   19.1380 C   0  0  0  0  0  0  0  0  0  0  0  0
   37.0810   35.8120   19.3910 C   0  0  0  0  0  0  0  0  0  0  0  0
   37.9640   36.0680   18.3380 C   0  0  0  0  0  0  0  0  0  0  0  0
   37.4970   36.0740   17.0210 C   0  0  0  0  0  0  0  0  0  0  0  0
   38.3510   36.3220   16.0000 F   0  0  0  0  0  0  0  0  0  0  0  0
   36.1510   35.8090   16.7560 C   0  0  0  0  0  0  0  0  0  0  0  0
   35.2640   35.5550   17.8070 C   0  0  0  0  0  0  0  0  0  0  0  0
   33.9770   35.2410   17.5180 F   0  0  0  0  0  0  0  0  0  0  0  0
   33.4174   40.3531   26.4391 H   0  0  0  0  0  0  0  0  0  0  0  0
   36.1496   35.8556   25.0490 H   0  0  0  0  0  0  0  0  0  0  0  0
   35.8697   35.1329   22.7246 H   0  0  0  0  0  0  0  0  0  0  0  0
   32.2944   39.6986   22.8648 H   0  0  0  0  0  0  0  0  0  0  0  0
   33.1488   40.0654   21.3280 H   0  0  0  0  0  0  0  0  0  0  0  0
   31.7381   38.9535   21.3280 H   0  0  0  0  0  0  0  0  0  0  0  0
   35.2167   38.6101   28.1137 H   0  0  0  0  0  0  0  0  0  0  0  0
   36.1233   40.4747   29.1535 H   0  0  0  0  0  0  0  0  0  0  0  0
   35.9745   41.0142   27.4407 H   0  0  0  0  0  0  0  0  0  0  0  0
   34.5790   41.8189   29.7338 H   0  0  0  0  0  0  0  0  0  0  0  0
   33.1724   38.2594   29.1048 H   0  0  0  0  0  0  0  0  0  0  0  0
   33.7487   39.7110   30.0036 H   0  0  0  0  0  0  0  0  0  0  0  0
   31.8018   40.3600   29.3876 H   0  0  0  0  0  0  0  0  0  0  0  0
   37.4538   35.8000   20.4258 H   0  0  0  0  0  0  0  0  0  0  0  0
   39.0261   36.2647   18.5460 H   0  0  0  0  0  0  0  0  0  0  0  0
   35.7879   35.8001   15.7177 H   0  0  0  0  0  0  0  0  0  0  0  0
  1 14  1  0
  1  2  1  0
  1 28  1  0
  2  3  2  0
  2 13  1  0
  3  4  1  0
  4  5  2  0
  4 29  1  0
  5  6  1  0
  5 12  1  0
  6  7  2  0
  6 30  1  0
  7  8  1  0
  7 19  1  0
  8 10  1  0
  8  9  2  0
 10 12  1  0
 10 11  1  0
 11 31  1  0
 11 32  1  0
 11 33  1  0
 12 13  2  0
 14 15  1  0
 14 17  1  0
 14 34  1  0
 15 16  1  0
 15 35  1  0
 15 36  1  0
 16 37  1  0
 17 18  1  0
 17 38  1  0
 17 39  1  0
 18 40  1  0
 19 20  1  0
 20 21  2  0
 20 26  1  0
 21 22  1  0
 21 41  1  0
 22 23  2  0
 22 42  1  0
 23 24  1  0
 23 25  1  0
 25 26  2  0
 25 43  1  0
 26 27  1  0
M  END
>  <s_m_entry_id>  (1) 
1372

>  <MODEL>  (1) 
1

>  <REMARK>  (1) 
 VINA RESULT:    -7.445      0.000      0.000
 INTER + INTRA:         -10.864
 INTER:                 -10.057
 INTRA:                  -0.808
 UNBOUND:                -0.808
  Name = /scratch/kmzp800/tmpwh12y8vr/tmphlw3co14.pdb
  8 active torsions:
  status: ('A' for Active; 'I' for Inactive)
    1  A    between atoms: O1_1  and  C1_2
    2  A    between atoms: C1_2  and  C2_3
    3  A    between atoms: C2_3  and  N1_4
    4  A    between atoms: C2_3  and  C17_26
    5  A    between atoms: C7_10  and  O2_11
    6  A    between atoms: O2_11  and  C8_12
    7  A    between atoms: N3_22  and  C15_23
    8  A    between atoms: C17_26  and  O4_27
                            x       y       z     vdW  Elec       q    Type
                         _______ _______ _______ _____ _____    ______ ____

>  <TORSDO>  (1) 
F 7

>  <grid_id>  (1) 
p38-prepared

>  <grid_path>  (1) 
/projects/mai/users/kmzp800_harry/pmx_colab/docking_jobs/p38/vina_docking/input_files/p38_vina.pdbqt

>  <grid_filename>  (1) 
p38_vina.pdbqt

>  <docking_score>  (1) 
-7.445

>  <compound_name>  (1) 
lig_p38a_2aa

>  <index_string>  (1) 
17:0:0

>  <s_m_Source_Path>  (1) 
/projects/mai/users/kmzp800_harry/pmx_colab/docking_jobs/p38

>  <s_m_Source_File>  (1) 
p38_confs_vina_naive.sdf

>  <i_m_Source_File_Index>  (1) 
19

$$$$
