19:0:0
     RDKit          3D

 49 52  0  0  1  0  0  0  0  0999 V2000
   32.7130   38.8360   25.6180 N   0  0  0  0  0  0  0  0  0  0  0  0
   32.8830   38.4030   24.2670 C   0  0  0  0  0  0  0  0  0  0  0  0
   32.6820   39.2840   23.2510 N   0  0  0  0  0  0  0  0  0  0  0  0
   32.8370   38.9070   21.9550 C   0  0  0  0  0  0  0  0  0  0  0  0
   33.2070   37.5990   21.6560 C   0  0  0  0  0  0  0  0  0  0  0  0
   33.3680   37.1790   20.3400 C   0  0  0  0  0  0  0  0  0  0  0  0
   33.7280   35.8610   20.0700 C   0  0  0  0  0  0  0  0  0  0  0  0
   33.9600   34.9780   21.1480 C   0  0  0  0  0  0  0  0  0  0  0  0
   34.3500   33.7990   20.9190 O   0  0  0  0  0  0  0  0  0  0  0  0
   33.7890   35.4040   22.4390 N   0  0  0  0  0  0  0  0  0  0  0  0
   34.0180   34.4730   23.5410 C   0  0  0  0  0  0  0  0  0  0  0  0
   33.4150   36.6930   22.7090 C   0  0  0  0  0  0  0  0  0  0  0  0
   33.2480   37.1200   23.9920 N   0  0  0  0  0  0  0  0  0  0  0  0
   31.0740   37.3920   29.1140 C   0  0  0  0  0  0  0  0  0  0  0  0
   31.5330   38.8040   28.7280 C   0  0  0  0  0  0  0  0  0  0  0  0
   32.9030   38.7720   28.0550 C   0  0  0  0  0  0  0  0  0  0  0  0
   32.8810   37.9480   26.7590 C   0  0  0  0  0  0  0  0  0  0  0  0
   31.7910   36.8630   26.7430 C   0  0  0  0  0  0  0  0  0  0  0  0
   31.5530   36.3030   28.1430 C   0  0  0  0  0  0  0  0  0  0  0  0
   29.6830   37.3650   29.2030 O   0  0  0  0  0  0  0  0  0  0  0  0
   33.8870   35.4760   18.7310 O   0  0  0  0  0  0  0  0  0  0  0  0
   35.0670   35.6060   17.9860 C   0  0  0  0  0  0  0  0  0  0  0  0
   36.2550   35.8900   18.6680 C   0  0  0  0  0  0  0  0  0  0  0  0
   37.4570   36.0400   17.9710 C   0  0  0  0  0  0  0  0  0  0  0  0
   37.4770   35.9140   16.5800 C   0  0  0  0  0  0  0  0  0  0  0  0
   38.6420   36.0580   15.9040 F   0  0  0  0  0  0  0  0  0  0  0  0
   36.2930   35.6530   15.8860 C   0  0  0  0  0  0  0  0  0  0  0  0
   35.0890   35.5020   16.5790 C   0  0  0  0  0  0  0  0  0  0  0  0
   33.9490   35.2980   15.8750 F   0  0  0  0  0  0  0  0  0  0  0  0
   32.4606   39.8193   25.7921 H   0  0  0  0  0  0  0  0  0  0  0  0
   32.6707   39.6326   21.1452 H   0  0  0  0  0  0  0  0  0  0  0  0
   33.2111   37.8872   19.5131 H   0  0  0  0  0  0  0  0  0  0  0  0
   33.8886   34.9991   24.4983 H   0  0  0  0  0  0  0  0  0  0  0  0
   33.2968   33.6449   23.4773 H   0  0  0  0  0  0  0  0  0  0  0  0
   35.0411   34.0739   23.4773 H   0  0  0  0  0  0  0  0  0  0  0  0
   31.5329   37.1642   30.0874 H   0  0  0  0  0  0  0  0  0  0  0  0
   30.8015   39.2421   28.0330 H   0  0  0  0  0  0  0  0  0  0  0  0
   31.6075   39.4095   29.6433 H   0  0  0  0  0  0  0  0  0  0  0  0
   33.2074   39.8020   27.8173 H   0  0  0  0  0  0  0  0  0  0  0  0
   33.6146   38.3004   28.7488 H   0  0  0  0  0  0  0  0  0  0  0  0
   33.8456   37.4226   26.7000 H   0  0  0  0  0  0  0  0  0  0  0  0
   30.8543   37.3002   26.3668 H   0  0  0  0  0  0  0  0  0  0  0  0
   32.1240   36.0426   26.0903 H   0  0  0  0  0  0  0  0  0  0  0  0
   32.4936   35.8761   28.5213 H   0  0  0  0  0  0  0  0  0  0  0  0
   30.7704   35.5328   28.0768 H   0  0  0  0  0  0  0  0  0  0  0  0
   29.4133   37.3598   30.1555 H   0  0  0  0  0  0  0  0  0  0  0  0
   36.2429   35.9962   19.7628 H   0  0  0  0  0  0  0  0  0  0  0  0
   38.3867   36.2571   18.5174 H   0  0  0  0  0  0  0  0  0  0  0  0
   36.3086   35.5660   14.7896 H   0  0  0  0  0  0  0  0  0  0  0  0
  1  2  1  0
  1 17  1  0
  2  3  2  0
  2 13  1  0
  3  4  1  0
  4  5  2  0
  5 12  1  0
  5  6  1  0
  6  7  2  0
  7  8  1  0
  7 21  1  0
  8 10  1  0
  8  9  2  0
 10 12  1  0
 10 11  1  0
 12 13  2  0
 14 20  1  0
 14 15  1  0
 14 19  1  0
 15 16  1  0
 16 17  1  0
 17 18  1  0
 18 19  1  0
 21 22  1  0
 22 23  2  0
 22 28  1  0
 23 24  1  0
 24 25  2  0
 25 26  1  0
 25 27  1  0
 27 28  2  0
 28 29  1  0
  1 30  1  0
  4 31  1  0
  6 32  1  0
 11 33  1  0
 11 34  1  0
 11 35  1  0
 14 36  1  0
 15 37  1  0
 15 38  1  0
 16 39  1  0
 16 40  1  0
 17 41  1  0
 18 42  1  0
 18 43  1  0
 19 44  1  0
 19 45  1  0
 20 46  1  0
 23 47  1  0
 24 48  1  0
 27 49  1  0
M  END
>  <s_m_entry_id>  (1) 
69

>  <MODEL>  (1) 
2

>  <REMARK>  (1) 
 VINA RESULT:    -9.102      1.471      1.748
 INTER + INTRA:         -10.451
 INTER:                 -10.130
 INTRA:                  -0.321
 UNBOUND:                 0.513
  Name = /scratch/kmzp800/tmpafoxbls7/tmp9n8m6aog.pdb
  5 active torsions:
  status: ('A' for Active; 'I' for Inactive)
    1  A    between atoms: O1_1  and  C1_2
    2  A    between atoms: C4_5  and  N1_6
    3  A    between atoms: C9_12  and  O2_13
    4  A    between atoms: O2_13  and  C10_14
    5  A    between atoms: N3_24  and  C17_25
                            x       y       z     vdW  Elec       q    Type
                         _______ _______ _______ _____ _____    ______ ____

>  <TORSDO>  (1) 
F 4

>  <grid_id>  (1) 
p38-prepared

>  <grid_path>  (1) 
/projects/mai/users/kmzp800_harry/pmx_colab/docking_jobs/p38/vina_docking/input_files/p38_vina.pdbqt

>  <grid_filename>  (1) 
p38_vina.pdbqt

>  <docking_score>  (1) 
-9.102

>  <compound_name>  (1) 
lig_p38a_2ff

>  <index_string>  (1) 
19:0:0

$$$$
