6:0:0
     RDKit          3D

 31 33  0  0  1  0  0  0  0  0999 V2000
  -15.1953  -19.2450  -25.9395 C   0  0  0  0  0  0  0  0  0  0  0  0
  -14.7816  -19.8429  -27.1456 C   0  0  0  0  0  0  0  0  0  0  0  0
  -15.4332  -20.0777  -24.8228 C   0  0  0  0  0  0  0  0  0  0  0  0
  -14.5604  -21.2239  -27.2212 C   0  0  0  0  0  0  0  0  0  0  0  0
  -15.2394  -21.4674  -24.9085 C   0  0  0  0  0  0  0  0  0  0  0  0
  -14.8482  -16.9855  -26.7708 N   0  0  0  0  0  0  0  0  0  0  0  0
  -14.7903  -22.0599  -26.1034 C   0  0  0  0  0  0  0  0  0  0  0  0
  -15.0464  -15.5946  -26.6953 C   0  0  0  0  0  0  0  0  0  0  0  0
  -15.7716  -15.0117  -25.6328 C   0  0  0  0  0  0  0  0  0  0  0  0
  -15.2392  -12.7860  -26.4708 C   0  0  0  0  0  0  0  0  0  0  0  0
  -14.5233  -13.3590  -27.5362 C   0  0  0  0  0  0  0  0  0  0  0  0
  -15.8867  -13.6085  -25.5268 C   0  0  0  0  0  0  0  0  0  0  0  0
  -14.4483  -14.7610  -27.6618 C   0  0  0  0  0  0  0  0  0  0  0  0
  -16.3908  -15.9390  -24.6263 C   0  0  0  0  0  0  0  0  0  0  0  0
  -16.1212  -17.2376  -24.8103 N   0  0  0  0  0  0  0  0  0  0  0  0
  -15.3618  -17.7652  -25.8567 C   0  0  0  0  0  0  0  0  0  0  0  0
  -17.1037  -15.5685  -23.7201 O   0  0  0  0  0  0  0  0  0  0  0  0
  -14.5768  -19.2396  -28.0180 H   0  0  0  0  0  0  0  0  0  0  0  0
  -15.7439  -19.6640  -23.8706 H   0  0  0  0  0  0  0  0  0  0  0  0
  -14.1980  -21.5735  -28.1638 H   0  0  0  0  0  0  0  0  0  0  0  0
  -15.4055  -22.0825  -24.0380 H   0  0  0  0  0  0  0  0  0  0  0  0
  -14.0265  -12.7204  -28.2591 H   0  0  0  0  0  0  0  0  0  0  0  0
  -16.4415  -13.1645  -24.7137 H   0  0  0  0  0  0  0  0  0  0  0  0
  -16.5269  -17.8872  -24.1474 H   0  0  0  0  0  0  0  0  0  0  0  0
  -13.8812  -15.1964  -28.4745 H   0  0  0  0  0  0  0  0  0  0  0  0
  -15.2963  -11.7131  -26.3881 H   0  0  0  0  0  0  0  0  0  0  0  0
  -14.6047  -23.4230  -26.0930 O   0  0  0  0  0  0  0  0  0  0  0  0
  -14.1700  -24.0497  -27.2873 C   0  0  0  0  0  0  0  0  0  0  0  0
  -14.0386  -25.1158  -27.1084 H   0  0  0  0  0  0  0  0  0  0  0  0
  -13.2129  -23.6560  -27.6303 H   0  0  0  0  0  0  0  0  0  0  0  0
  -14.9145  -23.9437  -28.0748 H   0  0  0  0  0  0  0  0  0  0  0  0
  1  2  2  0
  1  3  1  0
  1 16  1  0
  2  4  1  0
  2 18  1  0
  3  5  2  0
  3 19  1  0
  4  7  2  0
  4 20  1  0
  5  7  1  0
  5 21  1  0
  6  8  1  0
  6 16  2  0
  7 27  1  0
  8  9  2  0
  8 13  1  0
  9 12  1  0
  9 14  1  0
 10 11  1  0
 10 12  2  0
 10 26  1  0
 11 13  2  0
 11 22  1  0
 12 23  1  0
 13 25  1  0
 14 15  1  0
 14 17  2  0
 15 16  1  0
 15 24  1  0
 27 28  1  0
 28 29  1  0
 28 30  1  0
 28 31  1  0
M  END
>  <s_m_entry_id>  (1) 
448

>  <Name>  (1) 
1b

>  <IC50[nM]>  (1) 
52

>  <s_m_Source_Path>  (1) 
/projects/mai/users/kmzp800_harry/pmx_colab/docking_jobs/tnks2

>  <s_m_Source_File>  (1) 
tnks2_lig.sdf

>  <i_m_Source_File_Index>  (1) 
7

>  <s_m_job_name>  (1) 
glide-dock_SP_tnks2_core_const

>  <r_i_docking_score>  (1) 
-9.78746051368416

>  <r_i_glide_gscore>  (1) 
-9.78746051368416

>  <r_i_glide_emodel>  (1) 
-58.2614022025621

>  <index_string>  (1) 
6:0:0

$$$$
