3:0:0
     RDKit          3D

 57 60  0  0  1  0  0  0  0  0999 V2000
   41.3843   17.4862   11.8311 O   0  0  0  0  0  0  0  0  0  0  0  0
   40.5872   17.3629   12.7925 C   0  0  0  0  0  0  0  0  0  0  0  0
   39.4507   17.8862   12.8352 O   0  0  0  0  0  0  0  0  0  0  0  0
   41.0140   16.5350   14.0128 C   0  0  0  0  0  0  0  0  0  0  0  0
   42.1767   15.7577   13.7429 O   0  0  0  0  0  0  0  0  0  0  0  0
   42.5475   14.9425   14.7588 C   0  0  0  0  0  0  0  0  0  0  0  0
   42.1529   13.5934   14.8941 C   0  0  0  0  0  0  0  0  0  0  0  0
   40.9838   12.8255   13.6367 Br  0  0  0  0  0  0  0  0  0  0  0  0
   42.6208   12.9312   15.9931 C   0  0  0  0  0  0  0  0  0  0  0  0
   43.6529   13.9819   16.9150 S   0  0  0  0  0  0  0  0  0  0  0  0
   43.3723   15.2981   15.7941 C   0  0  0  0  0  0  0  0  0  0  0  0
   44.0197   16.5581   16.1204 C   0  0  0  0  0  0  0  0  0  0  0  0
   43.9902   17.4894   15.2938 O   0  0  0  0  0  0  0  0  0  0  0  0
   44.5838   16.6863   17.2253 O   0  0  0  0  0  0  0  0  0  0  0  0
   42.3633   11.5749   16.4498 C   0  0  0  0  0  0  0  0  0  0  0  0
   43.4053   10.7983   16.9923 C   0  0  0  0  0  0  0  0  0  0  0  0
   43.1672    9.4861   17.4306 C   0  0  0  0  0  0  0  0  0  0  0  0
   41.8811    8.9338   17.3110 C   0  0  0  0  0  0  0  0  0  0  0  0
   40.8263    9.6906   16.7529 C   0  0  0  0  0  0  0  0  0  0  0  0
   41.0734   11.0121   16.3440 C   0  0  0  0  0  0  0  0  0  0  0  0
   39.5357    9.1625   16.6157 N   0  0  0  0  0  0  0  0  0  0  0  0
   39.0895    8.0639   17.4730 C   0  0  0  0  0  0  0  0  0  0  0  0
   39.0472    8.4555   18.9632 C   0  0  0  0  0  0  0  0  0  0  0  0
   37.9606    9.5066   19.2465 C   0  0  0  0  0  0  0  0  0  0  0  0
   36.6338    9.0466   18.7905 N   0  0  0  0  0  0  0  0  0  0  0  0
   36.5909    8.5746   17.3892 C   0  0  0  0  0  0  0  0  0  0  0  0
   37.7016    7.5601   17.0683 C   0  0  0  0  0  0  0  0  0  0  0  0
   35.5094    8.4167   19.9609 S   0  0  0  0  0  0  0  0  0  0  0  0
   35.6326    9.2268   21.1829 O   0  0  0  0  0  0  0  0  0  0  0  0
   34.2046    8.2874   19.2935 O   0  0  0  0  0  0  0  0  0  0  0  0
   36.1344    6.7744   20.3033 C   0  0  0  0  0  0  0  0  0  0  0  0
   37.0115    6.5716   21.3878 C   0  0  0  0  0  0  0  0  0  0  0  0
   37.5012    5.2775   21.6539 C   0  0  0  0  0  0  0  0  0  0  0  0
   37.1092    4.1942   20.8418 C   0  0  0  0  0  0  0  0  0  0  0  0
   36.2237    4.4003   19.7653 C   0  0  0  0  0  0  0  0  0  0  0  0
   35.7293    5.6921   19.4967 C   0  0  0  0  0  0  0  0  0  0  0  0
   41.2004   17.2138   14.8466 H   0  0  0  0  0  0  0  0  0  0  0  0
   40.1878   15.8839   14.3022 H   0  0  0  0  0  0  0  0  0  0  0  0
   44.3988   11.2102   17.0713 H   0  0  0  0  0  0  0  0  0  0  0  0
   43.9715    8.9001   17.8492 H   0  0  0  0  0  0  0  0  0  0  0  0
   41.7361    7.9182   17.6444 H   0  0  0  0  0  0  0  0  0  0  0  0
   40.2563   11.5973   15.9501 H   0  0  0  0  0  0  0  0  0  0  0  0
   38.8563    9.6638   16.0623 H   0  0  0  0  0  0  0  0  0  0  0  0
   39.7754    7.2274   17.3393 H   0  0  0  0  0  0  0  0  0  0  0  0
   38.8592    7.5625   19.5581 H   0  0  0  0  0  0  0  0  0  0  0  0
   40.0127    8.8291   19.3027 H   0  0  0  0  0  0  0  0  0  0  0  0
   37.9358    9.7446   20.3098 H   0  0  0  0  0  0  0  0  0  0  0  0
   38.2032   10.4379   18.7336 H   0  0  0  0  0  0  0  0  0  0  0  0
   35.6325    8.1112   17.1812 H   0  0  0  0  0  0  0  0  0  0  0  0
   36.6758    9.4371   16.7282 H   0  0  0  0  0  0  0  0  0  0  0  0
   37.6855    7.3113   16.0063 H   0  0  0  0  0  0  0  0  0  0  0  0
   37.5014    6.6260   17.5917 H   0  0  0  0  0  0  0  0  0  0  0  0
   37.3135    7.4023   22.0075 H   0  0  0  0  0  0  0  0  0  0  0  0
   38.1771    5.1162   22.4811 H   0  0  0  0  0  0  0  0  0  0  0  0
   37.4866    3.2026   21.0466 H   0  0  0  0  0  0  0  0  0  0  0  0
   35.9250    3.5673   19.1458 H   0  0  0  0  0  0  0  0  0  0  0  0
   35.0502    5.8507   18.6718 H   0  0  0  0  0  0  0  0  0  0  0  0
  1  2  2  0
  2  3  1  0
  2  4  1  0
  4  5  1  0
  4 37  1  0
  4 38  1  0
  5  6  1  0
  6 11  2  0
  6  7  1  0
  7  8  1  0
  7  9  2  0
  9 10  1  0
  9 15  1  0
 10 11  1  0
 11 12  1  0
 12 13  2  0
 12 14  1  0
 15 20  1  0
 15 16  2  0
 16 17  1  0
 16 39  1  0
 17 18  2  0
 17 40  1  0
 18 19  1  0
 18 41  1  0
 19 20  2  0
 19 21  1  0
 20 42  1  0
 21 22  1  0
 21 43  1  0
 22 27  1  0
 22 23  1  0
 22 44  1  0
 23 24  1  0
 23 45  1  0
 23 46  1  0
 24 25  1  0
 24 47  1  0
 24 48  1  0
 25 26  1  0
 25 28  1  0
 26 27  1  0
 26 49  1  0
 26 50  1  0
 27 51  1  0
 27 52  1  0
 28 29  2  0
 28 30  2  0
 28 31  1  0
 31 36  1  0
 31 32  2  0
 32 33  1  0
 32 53  1  0
 33 34  2  0
 33 54  1  0
 34 35  1  0
 34 55  1  0
 35 36  2  0
 35 56  1  0
 36 57  1  0
M  CHG  2   3  -1  14  -1
M  END
>  <s_m_entry_id>  (1) 
478

>  <i_f3d_flags>  (1) 
0

>  <r_epik_Ionization_Penalty>  (1) 
  0.0004

>  <r_epik_State_Penalty>  (1) 
  0.0002

>  <i_epik_Tot_Q>  (1) 
-2

>  <s_m_job_name>  (1) 
glide-dock_SP_ptp1b_core_cons

>  <r_i_docking_score>  (1) 
-7.21445823624087

>  <r_i_glide_gscore>  (1) 
-7.21465823624087

>  <r_i_glide_emodel>  (1) 
-98.7639946596589

>  <index_string>  (1) 
3:0:0

$$$$
