15:0:0
     RDKit          3D

 63 66  0  0  1  0  0  0  0  0999 V2000
   41.4512   17.4863   11.8040 O   0  0  0  0  0  0  0  0  0  0  0  0
   40.5838   17.2268   12.6714 C   0  0  0  0  0  0  0  0  0  0  0  0
   39.3882   17.5970   12.5988 O   0  0  0  0  0  0  0  0  0  0  0  0
   40.9922   16.4247   13.9176 C   0  0  0  0  0  0  0  0  0  0  0  0
   42.2055   15.7018   13.7173 O   0  0  0  0  0  0  0  0  0  0  0  0
   42.5509   14.8929   14.7496 C   0  0  0  0  0  0  0  0  0  0  0  0
   42.1620   13.5395   14.8420 C   0  0  0  0  0  0  0  0  0  0  0  0
   41.3520   12.8683   13.7683 C   0  0  0  0  0  0  0  0  0  0  0  0
   43.3350   15.2866   15.7828 C   0  0  0  0  0  0  0  0  0  0  0  0
   43.9323   16.5750   16.0927 C   0  0  0  0  0  0  0  0  0  0  0  0
   44.5838   16.6863   17.1510 O   0  0  0  0  0  0  0  0  0  0  0  0
   43.7864   17.5273   15.2942 O   0  0  0  0  0  0  0  0  0  0  0  0
   43.6334   13.9842   16.9032 S   0  0  0  0  0  0  0  0  0  0  0  0
   42.6196   12.9160   15.9721 C   0  0  0  0  0  0  0  0  0  0  0  0
   42.3443   11.5671   16.4591 C   0  0  0  0  0  0  0  0  0  0  0  0
   41.0365   11.0317   16.3985 C   0  0  0  0  0  0  0  0  0  0  0  0
   40.7835    9.7184   16.8322 C   0  0  0  0  0  0  0  0  0  0  0  0
   41.8304    8.9394   17.3610 C   0  0  0  0  0  0  0  0  0  0  0  0
   43.1264    9.4773   17.4901 C   0  0  0  0  0  0  0  0  0  0  0  0
   43.3771   10.7767   17.0060 C   0  0  0  0  0  0  0  0  0  0  0  0
   44.1833    8.7852   18.0944 N   0  0  0  0  0  0  0  0  0  0  0  0
   43.9329    8.0899   19.3483 C   0  0  0  0  0  0  0  0  0  0  0  0
   45.1643    7.2597   19.7110 C   0  0  0  0  0  0  0  0  0  0  0  0
   44.9685    6.4943   21.0285 C   0  0  0  0  0  0  0  0  0  0  0  0
   44.5151    7.3726   22.1244 N   0  0  0  0  0  0  0  0  0  0  0  0
   43.4082    8.2990   21.8190 C   0  0  0  0  0  0  0  0  0  0  0  0
   43.6539    9.0631   20.5071 C   0  0  0  0  0  0  0  0  0  0  0  0
   45.4226    7.5196   23.5949 S   0  0  0  0  0  0  0  0  0  0  0  0
   44.4790    7.9243   24.6473 O   0  0  0  0  0  0  0  0  0  0  0  0
   46.2107    6.2894   23.7617 O   0  0  0  0  0  0  0  0  0  0  0  0
   46.5506    8.9523   23.2853 C   0  0  0  0  0  0  0  0  0  0  0  0
   47.5566    8.7345   22.1622 C   0  0  0  0  0  0  0  0  0  0  0  0
   48.4617    7.6502   22.1803 C   0  0  0  0  0  0  0  0  0  0  0  0
   49.4083    7.4953   21.1486 C   0  0  0  0  0  0  0  0  0  0  0  0
   49.4721    8.4363   20.1036 C   0  0  0  0  0  0  0  0  0  0  0  0
   48.5895    9.5323   20.0945 C   0  0  0  0  0  0  0  0  0  0  0  0
   47.6314    9.6788   21.1148 C   0  0  0  0  0  0  0  0  0  0  0  0
   41.1012   17.1124   14.7591 H   0  0  0  0  0  0  0  0  0  0  0  0
   40.1889   15.7312   14.1697 H   0  0  0  0  0  0  0  0  0  0  0  0
   40.3081   12.7503   14.0614 H   0  0  0  0  0  0  0  0  0  0  0  0
   41.3554   13.4419   12.8420 H   0  0  0  0  0  0  0  0  0  0  0  0
   41.7622   11.8855   13.5360 H   0  0  0  0  0  0  0  0  0  0  0  0
   40.2192   11.6225   16.0111 H   0  0  0  0  0  0  0  0  0  0  0  0
   39.7867    9.3097   16.7629 H   0  0  0  0  0  0  0  0  0  0  0  0
   41.6143    7.9361   17.6977 H   0  0  0  0  0  0  0  0  0  0  0  0
   44.3702   11.1922   17.0728 H   0  0  0  0  0  0  0  0  0  0  0  0
   45.0585    9.2863   18.0771 H   0  0  0  0  0  0  0  0  0  0  0  0
   43.0849    7.4153   19.2359 H   0  0  0  0  0  0  0  0  0  0  0  0
   45.3732    6.5665   18.8992 H   0  0  0  0  0  0  0  0  0  0  0  0
   46.0380    7.9023   19.7899 H   0  0  0  0  0  0  0  0  0  0  0  0
   44.2180    5.7195   20.8938 H   0  0  0  0  0  0  0  0  0  0  0  0
   45.8932    5.9891   21.3011 H   0  0  0  0  0  0  0  0  0  0  0  0
   42.4893    7.7179   21.7419 H   0  0  0  0  0  0  0  0  0  0  0  0
   43.2664    9.0000   22.6426 H   0  0  0  0  0  0  0  0  0  0  0  0
   44.4936    9.7472   20.6357 H   0  0  0  0  0  0  0  0  0  0  0  0
   42.7823    9.6802   20.2830 H   0  0  0  0  0  0  0  0  0  0  0  0
   45.9231    9.8199   23.0836 H   0  0  0  0  0  0  0  0  0  0  0  0
   47.0859    9.1543   24.2120 H   0  0  0  0  0  0  0  0  0  0  0  0
   48.4531    6.9371   22.9893 H   0  0  0  0  0  0  0  0  0  0  0  0
   50.0995    6.6662   21.1704 H   0  0  0  0  0  0  0  0  0  0  0  0
   50.2090    8.3342   19.3182 H   0  0  0  0  0  0  0  0  0  0  0  0
   48.6536   10.2653   19.3027 H   0  0  0  0  0  0  0  0  0  0  0  0
   46.9630   10.5270   21.0937 H   0  0  0  0  0  0  0  0  0  0  0  0
  1  2  2  0
  2  3  1  0
  2  4  1  0
  4  5  1  0
  4 38  1  0
  4 39  1  0
  5  6  1  0
  6  7  1  0
  6  9  2  0
  7 14  2  0
  7  8  1  0
  8 40  1  0
  8 41  1  0
  8 42  1  0
  9 10  1  0
  9 13  1  0
 10 11  2  0
 10 12  1  0
 13 14  1  0
 14 15  1  0
 15 20  1  0
 15 16  2  0
 16 17  1  0
 16 43  1  0
 17 18  2  0
 17 44  1  0
 18 19  1  0
 18 45  1  0
 19 20  2  0
 19 21  1  0
 20 46  1  0
 21 22  1  0
 21 47  1  0
 22 27  1  0
 22 23  1  0
 22 48  1  0
 23 24  1  0
 23 49  1  0
 23 50  1  0
 24 25  1  0
 24 51  1  0
 24 52  1  0
 25 26  1  0
 25 28  1  0
 26 27  1  0
 26 53  1  0
 26 54  1  0
 27 55  1  0
 27 56  1  0
 28 29  2  0
 28 30  2  0
 28 31  1  0
 31 32  1  0
 31 57  1  0
 31 58  1  0
 32 37  1  0
 32 33  2  0
 33 34  1  0
 33 59  1  0
 34 35  2  0
 34 60  1  0
 35 36  1  0
 35 61  1  0
 36 37  2  0
 36 62  1  0
 37 63  1  0
M  CHG  2   3  -1  12  -1
M  END
>  <s_m_entry_id>  (1) 
490

>  <i_f3d_flags>  (1) 
0

>  <r_epik_Ionization_Penalty>  (1) 
  0.0005

>  <r_epik_State_Penalty>  (1) 
  0.0002

>  <i_epik_Tot_Q>  (1) 
-2

>  <s_m_job_name>  (1) 
glide-dock_SP_ptp1b_core_cons

>  <r_i_docking_score>  (1) 
-6.64870039514426

>  <r_i_glide_gscore>  (1) 
-6.64890039514426

>  <r_i_glide_emodel>  (1) 
-92.8519758561854

>  <index_string>  (1) 
15:0:0

$$$$
