3:0:0
     RDKit          3D

 48 51  0  0  1  0  0  0  0  0999 V2000
   36.6789   34.9581   16.1987 F   0  0  0  0  0  0  0  0  0  0  0  0
   35.3339   34.9965   16.3529 C   0  0  0  0  0  0  0  0  0  0  0  0
   34.5112   34.7439   15.2452 C   0  0  0  0  0  0  0  0  0  0  0  0
   33.1160   34.8214   15.3633 C   0  0  0  0  0  0  0  0  0  0  0  0
   32.3194   34.6143   14.2889 F   0  0  0  0  0  0  0  0  0  0  0  0
   32.5524   35.1494   16.6023 C   0  0  0  0  0  0  0  0  0  0  0  0
   33.3584   35.2385   17.7525 C   0  0  0  0  0  0  0  0  0  0  0  0
   34.7602   35.1600   17.6343 C   0  0  0  0  0  0  0  0  0  0  0  0
   35.6506   35.1484   18.8642 C   0  0  0  0  0  0  0  0  0  0  0  0
   35.1430   35.8212   20.1212 C   0  0  0  0  0  0  0  0  0  0  0  0
   35.2689   37.1524   20.2704 C   0  0  0  0  0  0  0  0  0  0  0  0
   34.5067   34.9990   21.1644 C   0  0  0  0  0  0  0  0  0  0  0  0
   34.2107   33.8193   20.9684 O   0  0  0  0  0  0  0  0  0  0  0  0
   34.2310   35.6141   22.3507 N   0  0  0  0  0  0  0  0  0  0  0  0
   33.7200   34.8037   23.4690 C   0  0  0  0  0  0  0  0  0  0  0  0
   34.3129   37.0331   22.5362 C   0  0  0  0  0  0  0  0  0  0  0  0
   34.8179   37.8188   21.4811 C   0  0  0  0  0  0  0  0  0  0  0  0
   33.9131   37.6325   23.6783 N   0  0  0  0  0  0  0  0  0  0  0  0
   34.0078   38.9569   23.7666 C   0  0  0  0  0  0  0  0  0  0  0  0
   34.4576   39.7845   22.8243 N   0  0  0  0  0  0  0  0  0  0  0  0
   34.8566   39.2138   21.6680 C   0  0  0  0  0  0  0  0  0  0  0  0
   33.6037   39.5495   24.9436 N   0  0  0  0  0  0  0  0  0  0  0  0
   33.0545   38.8728   26.1121 C   0  0  0  0  0  0  0  0  0  0  0  0
   33.1002   39.8030   27.3348 C   0  0  0  0  0  0  0  0  0  0  0  0
   32.4757   39.1191   28.5594 C   0  0  0  0  0  0  0  0  0  0  0  0
   31.1390   38.7323   28.2640 O   0  0  0  0  0  0  0  0  0  0  0  0
   31.0465   37.7940   27.1975 C   0  0  0  0  0  0  0  0  0  0  0  0
   31.5992   38.4154   25.9022 C   0  0  0  0  0  0  0  0  0  0  0  0
   34.9516   34.5122   14.2892 H   0  0  0  0  0  0  0  0  0  0  0  0
   31.4827   35.2198   16.7060 H   0  0  0  0  0  0  0  0  0  0  0  0
   32.8814   35.3679   18.7127 H   0  0  0  0  0  0  0  0  0  0  0  0
   35.7521   34.0981   19.0991 H   0  0  0  0  0  0  0  0  0  0  0  0
   36.6367   35.5493   18.6245 H   0  0  0  0  0  0  0  0  0  0  0  0
   35.7291   37.7568   19.5013 H   0  0  0  0  0  0  0  0  0  0  0  0
   34.0636   35.1849   24.4312 H   0  0  0  0  0  0  0  0  0  0  0  0
   32.6296   34.8190   23.4722 H   0  0  0  0  0  0  0  0  0  0  0  0
   34.0426   33.7616   23.4321 H   0  0  0  0  0  0  0  0  0  0  0  0
   35.2271   39.8741   20.8992 H   0  0  0  0  0  0  0  0  0  0  0  0
   33.7512   40.5488   25.0275 H   0  0  0  0  0  0  0  0  0  0  0  0
   33.6734   37.9978   26.3179 H   0  0  0  0  0  0  0  0  0  0  0  0
   34.1277   40.0941   27.5554 H   0  0  0  0  0  0  0  0  0  0  0  0
   32.5521   40.7238   27.1258 H   0  0  0  0  0  0  0  0  0  0  0  0
   33.0611   38.2487   28.8598 H   0  0  0  0  0  0  0  0  0  0  0  0
   32.4623   39.8049   29.4072 H   0  0  0  0  0  0  0  0  0  0  0  0
   31.5881   36.8814   27.4518 H   0  0  0  0  0  0  0  0  0  0  0  0
   30.0007   37.5138   27.0744 H   0  0  0  0  0  0  0  0  0  0  0  0
   30.9763   39.2640   25.6151 H   0  0  0  0  0  0  0  0  0  0  0  0
   31.5339   37.6894   25.0911 H   0  0  0  0  0  0  0  0  0  0  0  0
  1  2  1  0
  2  8  2  0
  2  3  1  0
  3  4  2  0
  3 29  1  0
  4  5  1  0
  4  6  1  0
  6  7  2  0
  6 30  1  0
  7  8  1  0
  7 31  1  0
  8  9  1  0
  9 10  1  0
  9 32  1  0
  9 33  1  0
 10 11  2  0
 10 12  1  0
 11 17  1  0
 11 34  1  0
 12 13  2  0
 12 14  1  0
 14 15  1  0
 14 16  1  0
 15 35  1  0
 15 36  1  0
 15 37  1  0
 16 17  2  0
 16 18  1  0
 17 21  1  0
 18 19  2  0
 19 20  1  0
 19 22  1  0
 20 21  2  0
 21 38  1  0
 22 23  1  0
 22 39  1  0
 23 28  1  0
 23 24  1  0
 23 40  1  0
 24 25  1  0
 24 41  1  0
 24 42  1  0
 25 26  1  0
 25 43  1  0
 25 44  1  0
 26 27  1  0
 27 28  1  0
 27 45  1  0
 27 46  1  0
 28 47  1  0
 28 48  1  0
M  END
>  <s_m_entry_id>  (1) 
279

>  <i_f3d_flags>  (1) 
0

>  <r_lp_tautomer_probability>  (1) 
1

>  <r_epik_Ionization_Penalty>  (1) 
  0.0000

>  <r_epik_State_Penalty>  (1) 
  0.0000

>  <i_epik_Tot_Q>  (1) 
0

>  <s_m_job_name>  (1) 
glide-dock_SP_p38_core_cons_top_1

>  <r_i_docking_score>  (1) 
-6.29978683215598

>  <r_i_glide_gscore>  (1) 
-6.29978683215598

>  <r_i_glide_emodel>  (1) 
-33.2481827870287

>  <index_string>  (1) 
3:0:0

$$$$
