14:0:0
     RDKit          3D

 63 67  0  0  1  0  0  0  0  0999 V2000
   -4.4553   -3.4598   14.3593 C   0  0  0  0  0  0  0  0  0  0  0  0
   -3.8707   -2.2010   14.0481 O   0  0  0  0  0  0  0  0  0  0  0  0
   -2.5377   -2.0105   14.3538 C   0  0  0  0  0  0  0  0  0  0  0  0
   -1.7472   -2.9524   15.0529 C   0  0  0  0  0  0  0  0  0  0  0  0
   -0.3970   -2.6865   15.3427 C   0  0  0  0  0  0  0  0  0  0  0  0
    0.2065   -1.4848   14.9224 C   0  0  0  0  0  0  0  0  0  0  0  0
    1.5577   -1.2868   15.2675 N   0  0  0  0  0  0  0  0  0  0  0  0
    2.5320   -0.4218   14.7298 C   0  0  0  0  0  0  0  0  0  0  0  0
    2.1973    0.3900   13.7582 N   0  0  0  0  0  0  0  0  0  0  0  0
    3.1251    1.2741   13.2434 C   0  0  0  0  0  0  0  0  0  0  0  0
    4.4281    1.2933   13.6959 C   0  0  0  0  0  0  0  0  0  0  0  0
    4.7609    0.4745   14.7256 N   0  0  0  0  0  0  0  0  0  0  0  0
    5.8938    0.3942   15.5084 C   0  0  0  0  0  0  0  0  0  0  0  0
    5.5861   -0.4947   16.5084 C   0  0  0  0  0  0  0  0  0  0  0  0
    4.3490   -1.0654   16.3312 N   0  0  0  0  0  0  0  0  0  0  0  0
    3.8273   -0.4211   15.2936 C   0  0  0  0  0  0  0  0  0  0  0  0
    2.6978    2.2526   12.2051 C   0  0  0  0  0  0  0  0  0  0  0  0
    3.6377    2.7225   11.2512 C   0  0  0  0  0  0  0  0  0  0  0  0
    3.2692    3.5923   10.2133 C   0  0  0  0  0  0  0  0  0  0  0  0
    1.9388    4.0202   10.0996 C   0  0  0  0  0  0  0  0  0  0  0  0
    0.9815    3.6031   11.0451 C   0  0  0  0  0  0  0  0  0  0  0  0
    1.3680    2.7393   12.1049 C   0  0  0  0  0  0  0  0  0  0  0  0
   -0.4470    4.0225   10.8658 C   0  0  0  0  0  0  0  0  0  0  0  0
   -0.9596    3.9568    9.7490 O   0  0  0  0  0  0  0  0  0  0  0  0
   -1.0451    4.4961   11.9748 N   0  0  0  0  0  0  0  0  0  0  0  0
   -2.3738    4.9806   12.1539 C   0  0  0  0  0  0  0  0  0  0  0  0
   -2.6764    5.5465   13.4057 C   0  0  0  0  0  0  0  0  0  0  0  0
   -3.9741    5.9997   13.7012 C   0  0  0  0  0  0  0  0  0  0  0  0
   -4.9846    5.9420   12.7205 C   0  0  0  0  0  0  0  0  0  0  0  0
   -6.3934    6.4343   13.0333 C   0  0  0  0  0  0  0  0  0  0  0  0
   -6.4415    7.9690   13.0144 C   0  0  0  0  0  0  0  0  0  0  0  0
   -5.5863    8.5915   13.6839 O   0  0  0  0  0  0  0  0  0  0  0  0
   -7.3746    8.5070   12.3777 O   0  0  0  0  0  0  0  0  0  0  0  0
   -4.6859    5.3951   11.4562 C   0  0  0  0  0  0  0  0  0  0  0  0
   -3.3960    4.9032   11.1743 C   0  0  0  0  0  0  0  0  0  0  0  0
   -0.5863   -0.5450   14.2176 C   0  0  0  0  0  0  0  0  0  0  0  0
   -1.9511   -0.7976   13.9325 C   0  0  0  0  0  0  0  0  0  0  0  0
   -2.7687    0.0985   13.2708 O   0  0  0  0  0  0  0  0  0  0  0  0
   -2.1804    1.2432   12.6661 C   0  0  0  0  0  0  0  0  0  0  0  0
   -5.4854   -3.4756   14.0025 H   0  0  0  0  0  0  0  0  0  0  0  0
   -3.9314   -4.2776   13.8623 H   0  0  0  0  0  0  0  0  0  0  0  0
   -4.4635   -3.6432   15.4360 H   0  0  0  0  0  0  0  0  0  0  0  0
   -2.1563   -3.8848   15.4064 H   0  0  0  0  0  0  0  0  0  0  0  0
    0.1790   -3.4179   15.8931 H   0  0  0  0  0  0  0  0  0  0  0  0
    1.9293   -1.9231   15.9616 H   0  0  0  0  0  0  0  0  0  0  0  0
    5.1872    1.9934   13.3658 H   0  0  0  0  0  0  0  0  0  0  0  0
    6.7442    1.0284   15.3183 H   0  0  0  0  0  0  0  0  0  0  0  0
    6.0931   -0.7523   17.4079 H   0  0  0  0  0  0  0  0  0  0  0  0
    4.6622    2.3855   11.2812 H   0  0  0  0  0  0  0  0  0  0  0  0
    4.0055    3.9165    9.4934 H   0  0  0  0  0  0  0  0  0  0  0  0
    1.6528    4.6673    9.2814 H   0  0  0  0  0  0  0  0  0  0  0  0
    0.6304    2.3945   12.8140 H   0  0  0  0  0  0  0  0  0  0  0  0
   -0.4489    4.5621   12.7881 H   0  0  0  0  0  0  0  0  0  0  0  0
   -1.9111    5.6122   14.1690 H   0  0  0  0  0  0  0  0  0  0  0  0
   -4.1899    6.4112   14.6766 H   0  0  0  0  0  0  0  0  0  0  0  0
   -6.6902    6.0833   14.0227 H   0  0  0  0  0  0  0  0  0  0  0  0
   -7.1084    6.0326   12.3134 H   0  0  0  0  0  0  0  0  0  0  0  0
   -5.4505    5.3370   10.6969 H   0  0  0  0  0  0  0  0  0  0  0  0
   -3.2228    4.4792   10.1981 H   0  0  0  0  0  0  0  0  0  0  0  0
   -0.1723    0.4061   13.9307 H   0  0  0  0  0  0  0  0  0  0  0  0
   -2.9459    1.7820   12.0975 H   0  0  0  0  0  0  0  0  0  0  0  0
   -1.7853    1.9329   13.4184 H   0  0  0  0  0  0  0  0  0  0  0  0
   -1.3870    0.9655   11.9731 H   0  0  0  0  0  0  0  0  0  0  0  0
  1  2  1  0
  1 40  1  0
  1 41  1  0
  1 42  1  0
  2  3  1  0
  3  4  2  0
  3 37  1  0
  4  5  1  0
  4 43  1  0
  5  6  2  0
  5 44  1  0
  6  7  1  0
  6 36  1  0
  7  8  1  0
  7 45  1  0
  8  9  2  0
  8 16  1  0
  9 10  1  0
 10 11  2  0
 10 17  1  0
 11 12  1  0
 11 46  1  0
 12 13  1  0
 12 16  1  0
 13 14  2  0
 13 47  1  0
 14 15  1  0
 14 48  1  0
 15 16  2  0
 17 18  2  0
 17 22  1  0
 18 19  1  0
 18 49  1  0
 19 20  2  0
 19 50  1  0
 20 21  1  0
 20 51  1  0
 21 22  2  0
 21 23  1  0
 22 52  1  0
 23 24  2  0
 23 25  1  0
 25 26  1  0
 25 53  1  0
 26 27  2  0
 26 35  1  0
 27 28  1  0
 27 54  1  0
 28 29  2  0
 28 55  1  0
 29 30  1  0
 29 34  1  0
 30 31  1  0
 30 56  1  0
 30 57  1  0
 31 32  2  0
 31 33  1  0
 34 35  2  0
 34 58  1  0
 35 59  1  0
 36 37  2  0
 36 60  1  0
 37 38  1  0
 38 39  1  0
 39 61  1  0
 39 62  1  0
 39 63  1  0
M  CHG  1  33  -1
M  END
>  <s_m_entry_id>  (1) 
1002

>  <IC50[nM]>  (1) 
2.6

>  <s_m_Source_Path>  (1) 
/projects/mai/users/kmzp800_harry/pmx_colab/docking_jobs/syk

>  <s_m_Source_File>  (1) 
tnks2_lig.sdf

>  <i_m_Source_File_Index>  (1) 
15

>  <s_m_job_name>  (1) 
glide-dock_SP_tnks2_core_const

>  <r_i_docking_score>  (1) 
-8.47919686494341

>  <r_i_glide_gscore>  (1) 
-8.47919686494341

>  <r_i_glide_emodel>  (1) 
-80.3237691191521

>  <index_string>  (1) 
14:0:0

$$$$
