13:0:0
     RDKit          3D

 61 65  0  0  1  0  0  0  0  0999 V2000
    3.9290    4.1210    9.5100 C   0  0  0  0  0  0  0  0  0  0  0  0
    2.6770    4.5730    9.7720 N   0  0  0  0  0  0  0  0  0  0  0  0
    2.2030    3.6900   10.6670 C   0  0  0  0  0  0  0  0  0  0  0  0
    0.9440    3.7010   11.2640 C   0  0  0  0  0  0  0  0  0  0  0  0
    0.0030    4.7330   10.9390 N   0  0  0  0  0  0  0  0  0  0  0  0
    0.6530    2.7050   12.1540 N   0  0  0  0  0  0  0  0  0  0  0  0
    1.5560    1.7190   12.4630 C   0  0  0  0  0  0  0  0  0  0  0  0
    2.8220    1.7330   11.8430 C   0  0  0  0  0  0  0  0  0  0  0  0
    3.0810    2.7300   10.9670 N   0  0  0  0  0  0  0  0  0  0  0  0
    4.1880    2.9710   10.2520 C   0  0  0  0  0  0  0  0  0  0  0  0
   -1.3260    4.9020   11.4510 C   0  0  0  0  0  0  0  0  0  0  0  0
   -1.7620    6.1080   12.0150 C   0  0  0  0  0  0  0  0  0  0  0  0
   -3.0680    6.2250   12.5000 C   0  0  0  0  0  0  0  0  0  0  0  0
   -3.9530    5.1370   12.4280 C   0  0  0  0  0  0  0  0  0  0  0  0
   -3.5210    3.9280   11.8640 C   0  0  0  0  0  0  0  0  0  0  0  0
   -2.2080    3.8220   11.3790 C   0  0  0  0  0  0  0  0  0  0  0  0
   -5.2640    5.2300   12.9080 O   0  0  0  0  0  0  0  0  0  0  0  0
   -6.3360    5.7460   12.1300 C   0  0  0  0  0  0  0  0  0  0  0  0
   -4.4080    2.8490   11.7950 O   0  0  0  0  0  0  0  0  0  0  0  0
   -4.9570    2.3810   10.5700 C   0  0  0  0  0  0  0  0  0  0  0  0
    1.2050    0.6590   13.4310 C   0  0  0  0  0  0  0  0  0  0  0  0
    2.1620    0.1690   14.3330 C   0  0  0  0  0  0  0  0  0  0  0  0
    1.8310   -0.8320   15.2480 C   0  0  0  0  0  0  0  0  0  0  0  0
    0.5370   -1.3540   15.2690 C   0  0  0  0  0  0  0  0  0  0  0  0
   -0.4350   -0.8800   14.3790 C   0  0  0  0  0  0  0  0  0  0  0  0
   -0.0940    0.1260   13.4620 C   0  0  0  0  0  0  0  0  0  0  0  0
   -1.7990   -1.4360   14.4090 C   0  0  0  0  0  0  0  0  0  0  0  0
   -2.6840   -0.9560   13.6470 O   0  0  0  0  0  0  0  0  0  0  0  0
   -2.1120   -2.5150   15.3020 N   0  0  0  0  0  0  0  0  0  0  0  0
   -3.3830   -3.1610   15.4490 C   0  0  0  0  0  0  0  0  0  0  0  0
   -3.5900   -4.3920   14.8200 C   0  0  0  0  0  0  0  0  0  0  0  0
   -4.8160   -5.0530   14.9400 C   0  0  0  0  0  0  0  0  0  0  0  0
   -5.8450   -4.4830   15.6940 C   0  0  0  0  0  0  0  0  0  0  0  0
   -5.6550   -3.2510   16.3310 C   0  0  0  0  0  0  0  0  0  0  0  0
   -4.4230   -2.5960   16.2040 C   0  0  0  0  0  0  0  0  0  0  0  0
   -6.7410   -2.6530   17.1240 C   0  0  0  0  0  0  0  0  0  0  0  0
   -7.3050   -3.3140   18.0360 O   0  0  0  0  0  0  0  0  0  0  0  0
   -7.1560   -1.3500   16.8720 O   0  0  0  0  0  0  0  0  0  0  0  0
    4.6366    4.5938    8.8131 H   0  0  0  0  0  0  0  0  0  0  0  0
    0.3192    5.4367   10.2566 H   0  0  0  0  0  0  0  0  0  0  0  0
    3.5728    0.9600   12.0641 H   0  0  0  0  0  0  0  0  0  0  0  0
    5.1154    2.3794   10.2511 H   0  0  0  0  0  0  0  0  0  0  0  0
   -1.0751    6.9650   12.0764 H   0  0  0  0  0  0  0  0  0  0  0  0
   -3.4044    7.1751   12.9407 H   0  0  0  0  0  0  0  0  0  0  0  0
   -1.8690    2.8741   10.9357 H   0  0  0  0  0  0  0  0  0  0  0  0
   -7.1239    6.1253   12.7973 H   0  0  0  0  0  0  0  0  0  0  0  0
   -5.9673    6.5653   11.4953 H   0  0  0  0  0  0  0  0  0  0  0  0
   -6.7463    4.9467   11.4953 H   0  0  0  0  0  0  0  0  0  0  0  0
   -5.7787    1.6806   10.7803 H   0  0  0  0  0  0  0  0  0  0  0  0
   -5.3412    3.2337    9.9909 H   0  0  0  0  0  0  0  0  0  0  0  0
   -4.1759    1.8667    9.9909 H   0  0  0  0  0  0  0  0  0  0  0  0
    3.1831    0.5778   14.3189 H   0  0  0  0  0  0  0  0  0  0  0  0
    2.5886   -1.2085   15.9510 H   0  0  0  0  0  0  0  0  0  0  0  0
    0.2785   -2.1436   15.9899 H   0  0  0  0  0  0  0  0  0  0  0  0
   -0.8527    0.5014   12.7595 H   0  0  0  0  0  0  0  0  0  0  0  0
   -1.3457   -2.8601   15.8975 H   0  0  0  0  0  0  0  0  0  0  0  0
   -2.7820   -4.8441   14.2260 H   0  0  0  0  0  0  0  0  0  0  0  0
   -4.9705   -6.0212   14.4412 H   0  0  0  0  0  0  0  0  0  0  0  0
   -6.8089   -5.0047   15.7875 H   0  0  0  0  0  0  0  0  0  0  0  0
   -4.2688   -1.6273   16.7019 H   0  0  0  0  0  0  0  0  0  0  0  0
   -8.0348   -2.9046   18.5651 H   0  0  0  0  0  0  0  0  0  0  0  0
  1  2  1  0
  1 10  2  0
  2  3  2  0
  3  9  1  0
  3  4  1  0
  4  6  2  0
  4  5  1  0
  5 11  1  0
  6  7  1  0
  7 21  1  0
  7  8  2  0
  8  9  1  0
  9 10  1  0
 11 12  2  0
 11 16  1  0
 12 13  1  0
 13 14  2  0
 14 17  1  0
 14 15  1  0
 15 16  2  0
 15 19  1  0
 17 18  1  0
 19 20  1  0
 21 26  1  0
 21 22  2  0
 22 23  1  0
 23 24  2  0
 24 25  1  0
 25 27  1  0
 25 26  2  0
 27 29  1  0
 27 28  2  0
 29 30  1  0
 30 35  1  0
 30 31  2  0
 31 32  1  0
 32 33  2  0
 33 34  1  0
 34 36  1  0
 34 35  2  0
 36 37  1  0
 36 38  2  0
  1 39  1  0
  5 40  1  0
  8 41  1  0
 10 42  1  0
 12 43  1  0
 13 44  1  0
 16 45  1  0
 18 46  1  0
 18 47  1  0
 18 48  1  0
 20 49  1  0
 20 50  1  0
 20 51  1  0
 22 52  1  0
 23 53  1  0
 24 54  1  0
 26 55  1  0
 29 56  1  0
 31 57  1  0
 32 58  1  0
 33 59  1  0
 35 60  1  0
 37 61  1  0
M  END
>  <s_m_entry_id>  (1) 
14

>  <MODEL>  (1) 
1

>  <REMARK>  (1) 
 VINA RESULT:    -8.996      0.000      0.000
 INTER + INTRA:         -13.803
 INTER:                 -12.677
 INTRA:                  -1.126
 UNBOUND:                -1.126
  Name = /scratch/kmzp800/tmpxgy0ip6g/tmpr4t_q3sj.pdb
  9 active torsions:
  status: ('A' for Active; 'I' for Inactive)
    1  A    between atoms: N2_5  and  C4_6
    2  A    between atoms: C7_9  and  O1_10
    3  A    between atoms: O1_10  and  C8_11
    4  A    between atoms: C9_12  and  O2_13
    5  A    between atoms: O2_13  and  C10_14
    6  A    between atoms: C12_17  and  C13_18
    7  A    between atoms: C17_22  and  C18_23
    8  A    between atoms: N4_25  and  C19_26
    9  A    between atoms: C23_30  and  C24_31
                            x       y       z     vdW  Elec       q    Type
                         _______ _______ _______ _____ _____    ______ ____

>  <TORSDO>  (1) 
F 7

>  <grid_id>  (1) 
syk-prepared

>  <grid_path>  (1) 
syk_vina.pdbqt

>  <grid_filename>  (1) 
syk_vina.pdbqt

>  <docking_score>  (1) 
-8.996

>  <compound_name>  (1) 
CHEMBL3264997

>  <index_string>  (1) 
13:0:0

>  <s_m_Source_Path>  (1) 
/projects/mai/users/kmzp800_harry/pmx_colab/docking_jobs/syk/vina_prep/output

>  <s_m_Source_File>  (1) 
ptp1b_docked_conformers.sdf

>  <i_m_Source_File_Index>  (1) 
14

$$$$
