20:0:0
     RDKit          3D

 48 51  0  0  1  0  0  0  0  0999 V2000
   -4.5626   -3.1539   15.7822 C   0  0  0  0  0  0  0  0  0  0  0  0
   -3.9560   -2.2068   14.9127 O   0  0  0  0  0  0  0  0  0  0  0  0
   -2.5855   -2.0574   14.9732 C   0  0  0  0  0  0  0  0  0  0  0  0
   -1.7420   -2.8635   15.7752 C   0  0  0  0  0  0  0  0  0  0  0  0
   -0.3580   -2.6250   15.8189 C   0  0  0  0  0  0  0  0  0  0  0  0
    0.2232   -1.5792   15.0771 C   0  0  0  0  0  0  0  0  0  0  0  0
    1.6046   -1.3773   15.2577 N   0  0  0  0  0  0  0  0  0  0  0  0
    2.5218   -0.4494   14.7300 C   0  0  0  0  0  0  0  0  0  0  0  0
    2.1854    0.3525   13.7572 N   0  0  0  0  0  0  0  0  0  0  0  0
    3.0929    1.2696   13.2642 C   0  0  0  0  0  0  0  0  0  0  0  0
    4.3967    1.3232   13.7235 C   0  0  0  0  0  0  0  0  0  0  0  0
    4.7496    0.4827   14.7281 N   0  0  0  0  0  0  0  0  0  0  0  0
    5.8999    0.3817   15.4841 C   0  0  0  0  0  0  0  0  0  0  0  0
    5.5991   -0.4952   16.4936 C   0  0  0  0  0  0  0  0  0  0  0  0
    4.3599   -1.0690   16.3227 N   0  0  0  0  0  0  0  0  0  0  0  0
    3.8245   -0.4226   15.2952 C   0  0  0  0  0  0  0  0  0  0  0  0
    2.5136    2.3608   12.4328 C   0  0  0  0  0  0  0  0  0  0  0  0
    1.1263    2.4192   12.1563 C   0  0  0  0  0  0  0  0  0  0  0  0
    0.5661    3.4752   11.4167 C   0  0  0  0  0  0  0  0  0  0  0  0
    1.3718    4.5353   10.9718 C   0  0  0  0  0  0  0  0  0  0  0  0
    0.7867    5.5428   10.2765 F   0  0  0  0  0  0  0  0  0  0  0  0
    2.7561    4.5409   11.2771 C   0  0  0  0  0  0  0  0  0  0  0  0
    3.3064    3.4385   11.9684 C   0  0  0  0  0  0  0  0  0  0  0  0
    3.6587    5.6954   10.9307 C   0  0  0  0  0  0  0  0  0  0  0  0
    4.8822    5.6039   11.0127 O   0  0  0  0  0  0  0  0  0  0  0  0
    3.0699    6.8452   10.6179 N   0  0  0  0  0  0  0  0  0  0  0  0
   -0.6166   -0.7977   14.2502 C   0  0  0  0  0  0  0  0  0  0  0  0
   -2.0154   -1.0294   14.1909 C   0  0  0  0  0  0  0  0  0  0  0  0
   -2.8824   -0.2806   13.4183 O   0  0  0  0  0  0  0  0  0  0  0  0
   -2.3326    0.6638   12.5106 C   0  0  0  0  0  0  0  0  0  0  0  0
   -5.6449   -3.1202   15.6542 H   0  0  0  0  0  0  0  0  0  0  0  0
   -4.2351   -4.1701   15.5551 H   0  0  0  0  0  0  0  0  0  0  0  0
   -4.3487   -2.9298   16.8287 H   0  0  0  0  0  0  0  0  0  0  0  0
   -2.1306   -3.6620   16.3890 H   0  0  0  0  0  0  0  0  0  0  0  0
    0.2564   -3.2401   16.4622 H   0  0  0  0  0  0  0  0  0  0  0  0
    2.0210   -1.9640   15.9695 H   0  0  0  0  0  0  0  0  0  0  0  0
    5.1494    2.0408   13.4227 H   0  0  0  0  0  0  0  0  0  0  0  0
    6.7528    1.0125   15.2829 H   0  0  0  0  0  0  0  0  0  0  0  0
    6.1289   -0.7432   17.3872 H   0  0  0  0  0  0  0  0  0  0  0  0
    0.4637    1.6398   12.4889 H   0  0  0  0  0  0  0  0  0  0  0  0
   -0.4920    3.4803   11.2014 H   0  0  0  0  0  0  0  0  0  0  0  0
    4.3625    3.4636   12.1791 H   0  0  0  0  0  0  0  0  0  0  0  0
    3.6169    7.7029   10.5960 H   0  0  0  0  0  0  0  0  0  0  0  0
    2.0609    6.8909   10.5827 H   0  0  0  0  0  0  0  0  0  0  0  0
   -0.1975    0.0041   13.6780 H   0  0  0  0  0  0  0  0  0  0  0  0
   -3.1314    1.0864   11.9017 H   0  0  0  0  0  0  0  0  0  0  0  0
   -1.8544    1.4872   13.0424 H   0  0  0  0  0  0  0  0  0  0  0  0
   -1.6155    0.2007   11.8304 H   0  0  0  0  0  0  0  0  0  0  0  0
  1  2  1  0
  1 31  1  0
  1 32  1  0
  1 33  1  0
  2  3  1  0
  3  4  2  0
  3 28  1  0
  4  5  1  0
  4 34  1  0
  5  6  2  0
  5 35  1  0
  6  7  1  0
  6 27  1  0
  7  8  1  0
  7 36  1  0
  8  9  2  0
  8 16  1  0
  9 10  1  0
 10 11  2  0
 10 17  1  0
 11 12  1  0
 11 37  1  0
 12 13  1  0
 12 16  1  0
 13 14  2  0
 13 38  1  0
 14 15  1  0
 14 39  1  0
 15 16  2  0
 17 18  2  0
 17 23  1  0
 18 19  1  0
 18 40  1  0
 19 20  2  0
 19 41  1  0
 20 21  1  0
 20 22  1  0
 22 23  2  0
 22 24  1  0
 23 42  1  0
 24 25  2  0
 24 26  1  0
 26 43  1  0
 26 44  1  0
 27 28  2  0
 27 45  1  0
 28 29  1  0
 29 30  1  0
 30 46  1  0
 30 47  1  0
 30 48  1  0
M  END
>  <s_m_entry_id>  (1) 
1008

>  <IC50[nM]>  (1) 
67.3

>  <s_m_Source_Path>  (1) 
/projects/mai/users/kmzp800_harry/pmx_colab/docking_jobs/syk

>  <s_m_Source_File>  (1) 
tnks2_lig.sdf

>  <i_m_Source_File_Index>  (1) 
21

>  <s_m_job_name>  (1) 
glide-dock_SP_tnks2_core_const

>  <r_i_docking_score>  (1) 
-7.6749476135613

>  <r_i_glide_gscore>  (1) 
-7.6749476135613

>  <r_i_glide_emodel>  (1) 
-55.1484946161656

>  <index_string>  (1) 
20:0:0

$$$$
