0:0:0
     RDKit          3D

 60 63  0  0  1  0  0  0  0  0999 V2000
   39.1881   17.4970   12.6684 O   0  0  0  0  0  0  0  0  0  0  0  0
   40.3632   17.0672   12.6903 C   0  0  0  0  0  0  0  0  0  0  0  0
   41.2223   17.3058   11.8082 O   0  0  0  0  0  0  0  0  0  0  0  0
   40.7606   16.1491   13.8464 C   0  0  0  0  0  0  0  0  0  0  0  0
   42.1255   15.7530   13.7526 O   0  0  0  0  0  0  0  0  0  0  0  0
   42.5161   14.9354   14.7540 C   0  0  0  0  0  0  0  0  0  0  0  0
   42.1486   13.5740   14.8867 C   0  0  0  0  0  0  0  0  0  0  0  0
   41.1699   12.6858   13.5366 Br  0  0  0  0  0  0  0  0  0  0  0  0
   42.5885   12.9437   16.0144 C   0  0  0  0  0  0  0  0  0  0  0  0
   42.3335   11.5927   16.4936 C   0  0  0  0  0  0  0  0  0  0  0  0
   43.3845   10.7848   16.9731 C   0  0  0  0  0  0  0  0  0  0  0  0
   43.1221    9.4724   17.4032 C   0  0  0  0  0  0  0  0  0  0  0  0
   41.8163    8.9513   17.3387 C   0  0  0  0  0  0  0  0  0  0  0  0
   40.7583    9.7442   16.8483 C   0  0  0  0  0  0  0  0  0  0  0  0
   39.4559    9.2520   16.6666 N   0  0  0  0  0  0  0  0  0  0  0  0
   39.2650    7.8316   16.3884 C   0  0  0  0  0  0  0  0  0  0  0  0
   37.7695    7.4727   16.3988 C   0  0  0  0  0  0  0  0  0  0  0  0
   37.5695    5.9721   16.1257 C   0  0  0  0  0  0  0  0  0  0  0  0
   38.2135    5.6196   14.8491 N   0  0  0  0  0  0  0  0  0  0  0  0
   37.3112    5.0515   13.4872 S   0  0  0  0  0  0  0  0  0  0  0  0
   35.8901    5.3650   13.7056 O   0  0  0  0  0  0  0  0  0  0  0  0
   37.9945    5.5204   12.2707 O   0  0  0  0  0  0  0  0  0  0  0  0
   37.5300    3.2323   13.6199 C   0  0  0  0  0  0  0  0  0  0  0  0
   36.9176    2.5520   12.4112 C   0  0  0  0  0  0  0  0  0  0  0  0
   35.5427    2.2227   12.4057 C   0  0  0  0  0  0  0  0  0  0  0  0
   34.9780    1.5718   11.2916 C   0  0  0  0  0  0  0  0  0  0  0  0
   35.7819    1.2478   10.1807 C   0  0  0  0  0  0  0  0  0  0  0  0
   37.1506    1.5845   10.1807 C   0  0  0  0  0  0  0  0  0  0  0  0
   37.7174    2.2348   11.2939 C   0  0  0  0  0  0  0  0  0  0  0  0
   39.6497    5.9207   14.7616 C   0  0  0  0  0  0  0  0  0  0  0  0
   39.8840    7.4140   15.0305 C   0  0  0  0  0  0  0  0  0  0  0  0
   41.0244   11.0662   16.4485 C   0  0  0  0  0  0  0  0  0  0  0  0
   43.6045   14.0165   16.9246 S   0  0  0  0  0  0  0  0  0  0  0  0
   43.3461   15.3136   15.7735 C   0  0  0  0  0  0  0  0  0  0  0  0
   44.0057   16.5884   16.0470 C   0  0  0  0  0  0  0  0  0  0  0  0
   43.8359   17.5495   15.2611 O   0  0  0  0  0  0  0  0  0  0  0  0
   44.7432   16.6863   17.0509 O   0  0  0  0  0  0  0  0  0  0  0  0
   40.5708   16.6480   14.7978 H   0  0  0  0  0  0  0  0  0  0  0  0
   40.1396   15.2637   13.7916 H   0  0  0  0  0  0  0  0  0  0  0  0
   44.3897   11.1755   17.0079 H   0  0  0  0  0  0  0  0  0  0  0  0
   43.9243    8.8533   17.7755 H   0  0  0  0  0  0  0  0  0  0  0  0
   41.6593    7.9319   17.6700 H   0  0  0  0  0  0  0  0  0  0  0  0
   38.8269    9.8797   16.1770 H   0  0  0  0  0  0  0  0  0  0  0  0
   39.7197    7.2437   17.1880 H   0  0  0  0  0  0  0  0  0  0  0  0
   37.3338    7.7295   17.3617 H   0  0  0  0  0  0  0  0  0  0  0  0
   37.2403    8.0550   15.6454 H   0  0  0  0  0  0  0  0  0  0  0  0
   38.0215    5.3865   16.9277 H   0  0  0  0  0  0  0  0  0  0  0  0
   36.5094    5.7265   16.1043 H   0  0  0  0  0  0  0  0  0  0  0  0
   38.5944    3.0214   13.6787 H   0  0  0  0  0  0  0  0  0  0  0  0
   37.0663    2.8876   14.5444 H   0  0  0  0  0  0  0  0  0  0  0  0
   34.9170    2.4592   13.2537 H   0  0  0  0  0  0  0  0  0  0  0  0
   33.9261    1.3219   11.2894 H   0  0  0  0  0  0  0  0  0  0  0  0
   35.3517    0.7430    9.3284 H   0  0  0  0  0  0  0  0  0  0  0  0
   37.7566    1.3367    9.3205 H   0  0  0  0  0  0  0  0  0  0  0  0
   38.7722    2.4775   11.2939 H   0  0  0  0  0  0  0  0  0  0  0  0
   40.1808    5.3207   15.5045 H   0  0  0  0  0  0  0  0  0  0  0  0
   40.0496    5.6298   13.7875 H   0  0  0  0  0  0  0  0  0  0  0  0
   39.4476    8.0012   14.2196 H   0  0  0  0  0  0  0  0  0  0  0  0
   40.9586    7.6050   15.0050 H   0  0  0  0  0  0  0  0  0  0  0  0
   40.2213   11.6813   16.0699 H   0  0  0  0  0  0  0  0  0  0  0  0
  1  2  2  0
  2  3  1  0
  2  4  1  0
  4  5  1  0
  4 38  1  0
  4 39  1  0
  5  6  1  0
  6  7  1  0
  6 34  2  0
  7  8  1  0
  7  9  2  0
  9 10  1  0
  9 33  1  0
 10 11  2  0
 10 32  1  0
 11 12  1  0
 11 40  1  0
 12 13  2  0
 12 41  1  0
 13 14  1  0
 13 42  1  0
 14 15  1  0
 14 32  2  0
 15 16  1  0
 15 43  1  0
 16 17  1  0
 16 31  1  0
 16 44  1  0
 17 18  1  0
 17 45  1  0
 17 46  1  0
 18 19  1  0
 18 47  1  0
 18 48  1  0
 19 20  1  0
 19 30  1  0
 20 21  2  0
 20 22  2  0
 20 23  1  0
 23 24  1  0
 23 49  1  0
 23 50  1  0
 24 25  2  0
 24 29  1  0
 25 26  1  0
 25 51  1  0
 26 27  2  0
 26 52  1  0
 27 28  1  0
 27 53  1  0
 28 29  2  0
 28 54  1  0
 29 55  1  0
 30 31  1  0
 30 56  1  0
 30 57  1  0
 31 58  1  0
 31 59  1  0
 32 60  1  0
 33 34  1  0
 34 35  1  0
 35 36  2  0
 35 37  1  0
M  CHG  2   3  -1  37  -1
M  END
>  <s_m_entry_id>  (1) 
517

>  <s_m_Source_Path>  (1) 
/projects/mai/users/kmzp800_harry/pmx_colab/docking_jobs/ptp1b/glide-dock_SP_ptp1b_mcs_2

>  <s_m_Source_File>  (1) 
glide-dock_SP_ptp1b_mcs_2_pv.maegz

>  <i_m_Source_File_Index>  (1) 
2

>  <r_i_docking_score>  (1) 
-7.52988587094113

>  <r_i_glide_gscore>  (1) 
-7.52988587094113

>  <r_i_glide_emodel>  (1) 
-104.833519121902

>  <index_string>  (1) 
0:0:0

$$$$
