8:0:0
     RDKit          3D

 48 51  0  0  1  0  0  0  0  0999 V2000
   -4.1766   -3.2190   13.0221 C   0  0  0  0  0  0  0  0  0  0  0  0
   -3.8357   -2.2105   13.9588 O   0  0  0  0  0  0  0  0  0  0  0  0
   -2.4955   -2.0727   14.2358 C   0  0  0  0  0  0  0  0  0  0  0  0
   -1.9425   -0.7957   14.0418 C   0  0  0  0  0  0  0  0  0  0  0  0
   -0.5959   -0.5409   14.3422 C   0  0  0  0  0  0  0  0  0  0  0  0
    0.2290   -1.5581   14.8633 C   0  0  0  0  0  0  0  0  0  0  0  0
    1.5674   -1.3441   15.2379 N   0  0  0  0  0  0  0  0  0  0  0  0
    2.5201   -0.4430   14.7298 C   0  0  0  0  0  0  0  0  0  0  0  0
    2.1927    0.3653   13.7536 N   0  0  0  0  0  0  0  0  0  0  0  0
    3.1052    1.2804   13.2511 C   0  0  0  0  0  0  0  0  0  0  0  0
    4.4231    1.2734   13.6640 C   0  0  0  0  0  0  0  0  0  0  0  0
    4.7477    0.4669   14.7151 N   0  0  0  0  0  0  0  0  0  0  0  0
    5.8993    0.3642   15.4718 C   0  0  0  0  0  0  0  0  0  0  0  0
    5.5979   -0.4936   16.4981 C   0  0  0  0  0  0  0  0  0  0  0  0
    4.3398   -1.0313   16.3609 N   0  0  0  0  0  0  0  0  0  0  0  0
    3.8096   -0.4201   15.3017 C   0  0  0  0  0  0  0  0  0  0  0  0
    2.4999    2.3699   12.4362 C   0  0  0  0  0  0  0  0  0  0  0  0
    1.1046    2.3924   12.1741 C   0  0  0  0  0  0  0  0  0  0  0  0
    0.4991    3.4356   11.4544 C   0  0  0  0  0  0  0  0  0  0  0  0
    1.2725    4.5177   11.0144 C   0  0  0  0  0  0  0  0  0  0  0  0
    2.6527    4.5565   11.3029 C   0  0  0  0  0  0  0  0  0  0  0  0
    3.2606    3.4711   11.9731 C   0  0  0  0  0  0  0  0  0  0  0  0
    3.4661    5.7571   10.9323 C   0  0  0  0  0  0  0  0  0  0  0  0
    4.6510    5.6713   10.6178 O   0  0  0  0  0  0  0  0  0  0  0  0
    2.8290    6.9190   11.0593 N   0  0  0  0  0  0  0  0  0  0  0  0
   -0.3275   -2.8368   15.0674 C   0  0  0  0  0  0  0  0  0  0  0  0
   -1.6827   -3.1192   14.7474 C   0  0  0  0  0  0  0  0  0  0  0  0
   -2.2539   -4.3599   14.9430 O   0  0  0  0  0  0  0  0  0  0  0  0
   -1.4156   -5.4368   15.3413 C   0  0  0  0  0  0  0  0  0  0  0  0
   -5.1858   -3.0364   12.6537 H   0  0  0  0  0  0  0  0  0  0  0  0
   -3.5084   -3.1963   12.1632 H   0  0  0  0  0  0  0  0  0  0  0  0
   -4.1689   -4.2159   13.4606 H   0  0  0  0  0  0  0  0  0  0  0  0
   -2.5593    0.0061   13.6662 H   0  0  0  0  0  0  0  0  0  0  0  0
   -0.2327    0.4655   14.2205 H   0  0  0  0  0  0  0  0  0  0  0  0
    1.9544   -2.0143   15.8911 H   0  0  0  0  0  0  0  0  0  0  0  0
    5.1853    1.9693   13.3349 H   0  0  0  0  0  0  0  0  0  0  0  0
    6.7636    0.9716   15.2484 H   0  0  0  0  0  0  0  0  0  0  0  0
    6.1350   -0.7324   17.3908 H   0  0  0  0  0  0  0  0  0  0  0  0
    0.4641    1.5877   12.4948 H   0  0  0  0  0  0  0  0  0  0  0  0
   -0.5613    3.4098   11.2511 H   0  0  0  0  0  0  0  0  0  0  0  0
    0.7919    5.3228   10.4771 H   0  0  0  0  0  0  0  0  0  0  0  0
    4.3192    3.5284   12.1752 H   0  0  0  0  0  0  0  0  0  0  0  0
    3.3423    7.8000   11.0166 H   0  0  0  0  0  0  0  0  0  0  0  0
    1.8875    6.9310   11.4163 H   0  0  0  0  0  0  0  0  0  0  0  0
    0.3155   -3.5984   15.4820 H   0  0  0  0  0  0  0  0  0  0  0  0
   -2.0085   -6.3484   15.4144 H   0  0  0  0  0  0  0  0  0  0  0  0
   -0.6200   -5.6156   14.6177 H   0  0  0  0  0  0  0  0  0  0  0  0
   -0.9645   -5.2612   16.3162 H   0  0  0  0  0  0  0  0  0  0  0  0
  1  2  1  0
  1 30  1  0
  1 31  1  0
  1 32  1  0
  2  3  1  0
  3  4  2  0
  3 27  1  0
  4  5  1  0
  4 33  1  0
  5  6  2  0
  5 34  1  0
  6  7  1  0
  6 26  1  0
  7  8  1  0
  7 35  1  0
  8  9  2  0
  8 16  1  0
  9 10  1  0
 10 11  2  0
 10 17  1  0
 11 12  1  0
 11 36  1  0
 12 13  1  0
 12 16  1  0
 13 14  2  0
 13 37  1  0
 14 15  1  0
 14 38  1  0
 15 16  2  0
 17 18  2  0
 17 22  1  0
 18 19  1  0
 18 39  1  0
 19 20  2  0
 19 40  1  0
 20 21  1  0
 20 41  1  0
 21 22  2  0
 21 23  1  0
 22 42  1  0
 23 24  2  0
 23 25  1  0
 25 43  1  0
 25 44  1  0
 26 27  2  0
 26 45  1  0
 27 28  1  0
 28 29  1  0
 29 46  1  0
 29 47  1  0
 29 48  1  0
M  END
>  <s_m_entry_id>  (1) 
996

>  <IC50[nM]>  (1) 
27.1

>  <s_m_Source_Path>  (1) 
/projects/mai/users/kmzp800_harry/pmx_colab/docking_jobs/syk

>  <s_m_Source_File>  (1) 
tnks2_lig.sdf

>  <i_m_Source_File_Index>  (1) 
9

>  <s_m_job_name>  (1) 
glide-dock_SP_tnks2_core_const

>  <r_i_docking_score>  (1) 
-7.66849876159549

>  <r_i_glide_gscore>  (1) 
-7.66849876159549

>  <r_i_glide_emodel>  (1) 
-47.4156030340098

>  <index_string>  (1) 
8:0:0

$$$$
