42:0:0
     RDKit          3D

 52 57  0  0  1  0  0  0  0  0999 V2000
   -1.2879    6.1973    8.6205 C   0  0  0  0  0  0  0  0  0  0  0  0
   -2.7388    5.8402    8.9955 C   0  0  0  0  0  0  0  0  0  0  0  0
   -2.8743    5.7221   10.4463 N   0  0  0  0  0  0  0  0  0  0  0  0
   -2.3957    6.9199   11.1380 C   0  0  0  0  0  0  0  0  0  0  0  0
   -0.9561    7.2707   10.7020 C   0  0  0  0  0  0  0  0  0  0  0  0
   -0.9076    7.4006    9.2842 O   0  0  0  0  0  0  0  0  0  0  0  0
   -2.6563    4.4431   11.0040 C   0  0  0  0  0  0  0  0  0  0  0  0
   -1.7694    4.2359   12.0861 C   0  0  0  0  0  0  0  0  0  0  0  0
   -1.5696    2.9504   12.6168 C   0  0  0  0  0  0  0  0  0  0  0  0
   -2.2481    1.8285   12.0908 C   0  0  0  0  0  0  0  0  0  0  0  0
   -2.0858    0.5318   12.6161 N   0  0  0  0  0  0  0  0  0  0  0  0
   -0.9895    0.0064   13.3218 C   0  0  0  0  0  0  0  0  0  0  0  0
    0.1616    0.5962   13.1938 N   0  0  0  0  0  0  0  0  0  0  0  0
    1.2501    0.1559   13.9034 C   0  0  0  0  0  0  0  0  0  0  0  0
    1.1875   -0.9361   14.7387 C   0  0  0  0  0  0  0  0  0  0  0  0
   -0.0079   -1.5728   14.8568 N   0  0  0  0  0  0  0  0  0  0  0  0
   -0.3957   -2.6651   15.6083 C   0  0  0  0  0  0  0  0  0  0  0  0
   -1.7253   -2.8594   15.3549 C   0  0  0  0  0  0  0  0  0  0  0  0
   -2.2033   -1.9134   14.4533 N   0  0  0  0  0  0  0  0  0  0  0  0
   -1.1592   -1.1378   14.1557 C   0  0  0  0  0  0  0  0  0  0  0  0
    2.4738    0.9728   13.7374 C   0  0  0  0  0  0  0  0  0  0  0  0
    3.7579    0.4167   13.9453 C   0  0  0  0  0  0  0  0  0  0  0  0
    4.9250    1.2037   13.8505 C   0  0  0  0  0  0  0  0  0  0  0  0
    4.8465    2.5835   13.5580 C   0  0  0  0  0  0  0  0  0  0  0  0
    5.7509    3.6855   13.4117 C   0  0  0  0  0  0  0  0  0  0  0  0
    5.1226    4.7986   13.1203 N   0  0  0  0  0  0  0  0  0  0  0  0
    3.8062    4.4695   13.0872 N   0  0  0  0  0  0  0  0  0  0  0  0
    3.5577    3.1317   13.3419 C   0  0  0  0  0  0  0  0  0  0  0  0
    2.3925    2.3509   13.4175 C   0  0  0  0  0  0  0  0  0  0  0  0
   -3.1544    2.0345   11.0316 C   0  0  0  0  0  0  0  0  0  0  0  0
   -3.3519    3.3221   10.4936 C   0  0  0  0  0  0  0  0  0  0  0  0
   -1.2017    6.3444    7.5436 H   0  0  0  0  0  0  0  0  0  0  0  0
   -0.6056    5.3878    8.8866 H   0  0  0  0  0  0  0  0  0  0  0  0
   -3.0388    4.9322    8.4736 H   0  0  0  0  0  0  0  0  0  0  0  0
   -3.4080    6.6266    8.6470 H   0  0  0  0  0  0  0  0  0  0  0  0
   -3.0596    7.7459   10.8808 H   0  0  0  0  0  0  0  0  0  0  0  0
   -2.4654    6.8098   12.2200 H   0  0  0  0  0  0  0  0  0  0  0  0
   -0.6447    8.2117   11.1579 H   0  0  0  0  0  0  0  0  0  0  0  0
   -0.2404    6.5140   11.0262 H   0  0  0  0  0  0  0  0  0  0  0  0
   -1.2184    5.0489   12.5317 H   0  0  0  0  0  0  0  0  0  0  0  0
   -0.8991    2.8521   13.4564 H   0  0  0  0  0  0  0  0  0  0  0  0
   -2.7706   -0.1621   12.3521 H   0  0  0  0  0  0  0  0  0  0  0  0
    2.0134   -1.3129   15.3321 H   0  0  0  0  0  0  0  0  0  0  0  0
    0.3083   -3.1758   16.2520 H   0  0  0  0  0  0  0  0  0  0  0  0
   -2.3844   -3.6116   15.7649 H   0  0  0  0  0  0  0  0  0  0  0  0
    3.8548   -0.6226   14.2174 H   0  0  0  0  0  0  0  0  0  0  0  0
    5.8902    0.7541   14.0319 H   0  0  0  0  0  0  0  0  0  0  0  0
    6.8277    3.6898   13.4989 H   0  0  0  0  0  0  0  0  0  0  0  0
    3.1113    5.1803   12.9046 H   0  0  0  0  0  0  0  0  0  0  0  0
    1.4364    2.8238   13.2572 H   0  0  0  0  0  0  0  0  0  0  0  0
   -3.7034    1.2043   10.6155 H   0  0  0  0  0  0  0  0  0  0  0  0
   -4.0601    3.4415    9.6878 H   0  0  0  0  0  0  0  0  0  0  0  0
  1  2  1  0
  1  6  1  0
  1 32  1  0
  1 33  1  0
  2  3  1  0
  2 34  1  0
  2 35  1  0
  3  4  1  0
  3  7  1  0
  4  5  1  0
  4 36  1  0
  4 37  1  0
  5  6  1  0
  5 38  1  0
  5 39  1  0
  7  8  2  0
  7 31  1  0
  8  9  1  0
  8 40  1  0
  9 10  2  0
  9 41  1  0
 10 11  1  0
 10 30  1  0
 11 12  1  0
 11 42  1  0
 12 13  2  0
 12 20  1  0
 13 14  1  0
 14 15  2  0
 14 21  1  0
 15 16  1  0
 15 43  1  0
 16 17  1  0
 16 20  1  0
 17 18  2  0
 17 44  1  0
 18 19  1  0
 18 45  1  0
 19 20  2  0
 21 22  2  0
 21 29  1  0
 22 23  1  0
 22 46  1  0
 23 24  2  0
 23 47  1  0
 24 25  1  0
 24 28  1  0
 25 26  2  0
 25 48  1  0
 26 27  1  0
 27 28  1  0
 27 49  1  0
 28 29  2  0
 29 50  1  0
 30 31  2  0
 30 51  1  0
 31 52  1  0
M  END
>  <s_m_entry_id>  (1) 
722

>  <IC50[nM]>  (1) 
10000

>  <s_m_Source_Path>  (1) 
/projects/mai/users/kmzp800_harry/pmx_colab/docking_jobs/syk

>  <s_m_Source_File>  (1) 
tnks2_lig.sdf

>  <i_m_Source_File_Index>  (1) 
43

>  <s_m_job_name>  (1) 
glide-dock_SP_tnks2_no_const

>  <r_i_docking_score>  (1) 
-6.21662231227693

>  <r_i_glide_gscore>  (1) 
-6.21662231227693

>  <r_i_glide_emodel>  (1) 
-65.2048413391735

>  <index_string>  (1) 
42:0:0

$$$$
