14:0:0
     RDKit          3D

 50 54  0  0  1  0  0  0  0  0999 V2000
   34.3840   35.1573   21.3382 C   0  0  0  0  0  0  0  0  0  0  0  0
   33.9353   39.1882   23.8403 C   0  0  0  0  0  0  0  0  0  0  0  0
   34.7395   37.9671   21.5942 C   0  0  0  0  0  0  0  0  0  0  0  0
   35.1740   37.2740   20.3892 C   0  0  0  0  0  0  0  0  0  0  0  0
   34.0941   37.2378   22.6172 C   0  0  0  0  0  0  0  0  0  0  0  0
   34.9482   39.3399   21.8062 C   0  0  0  0  0  0  0  0  0  0  0  0
   35.0130   35.9400   20.2730 C   0  0  0  0  0  0  0  0  0  0  0  0
   34.5405   39.9493   22.9343 N   0  0  0  0  0  0  0  0  0  0  0  0
   34.3189   33.9326   21.2550 O   0  0  0  0  0  0  0  0  0  0  0  0
   33.8843   35.8298   22.4163 N   0  0  0  0  0  0  0  0  0  0  0  0
   33.7055   37.8805   23.7453 N   0  0  0  0  0  0  0  0  0  0  0  0
   33.5066   39.8723   24.9578 N   0  0  0  0  0  0  0  0  0  0  0  0
   35.6063   37.8701   19.5983 H   0  0  0  0  0  0  0  0  0  0  0  0
   35.4496   39.9494   21.0718 H   0  0  0  0  0  0  0  0  0  0  0  0
   33.7517   40.8587   25.0001 H   0  0  0  0  0  0  0  0  0  0  0  0
   33.2422   35.0797   23.4722 C   0  0  0  0  0  0  0  0  0  0  0  0
   31.8611   35.4729   23.9666 C   0  0  0  0  0  0  0  0  0  0  0  0
   32.0337   34.2094   23.1675 C   0  0  0  0  0  0  0  0  0  0  0  0
   33.9182   34.6953   24.2344 H   0  0  0  0  0  0  0  0  0  0  0  0
   31.6612   35.3695   25.0312 H   0  0  0  0  0  0  0  0  0  0  0  0
   31.3493   36.2989   23.4765 H   0  0  0  0  0  0  0  0  0  0  0  0
   31.6363   34.2071   22.1538 H   0  0  0  0  0  0  0  0  0  0  0  0
   31.9560   33.2622   23.6978 H   0  0  0  0  0  0  0  0  0  0  0  0
   31.1760   38.2743   27.5672 C   0  0  0  0  0  0  0  0  0  0  0  0
   31.6374   38.6789   26.1548 C   0  0  0  0  0  0  0  0  0  0  0  0
   33.0100   39.3548   26.2283 C   0  0  0  0  0  0  0  0  0  0  0  0
   34.0124   38.4866   26.9943 C   0  0  0  0  0  0  0  0  0  0  0  0
   33.4265   38.1487   28.3747 C   0  0  0  0  0  0  0  0  0  0  0  0
   32.1682   37.4978   28.2306 O   0  0  0  0  0  0  0  0  0  0  0  0
   30.9527   39.1492   28.1724 H   0  0  0  0  0  0  0  0  0  0  0  0
   30.2546   37.6941   27.5071 H   0  0  0  0  0  0  0  0  0  0  0  0
   30.9040   39.3456   25.6998 H   0  0  0  0  0  0  0  0  0  0  0  0
   31.6859   37.7911   25.5272 H   0  0  0  0  0  0  0  0  0  0  0  0
   32.8685   40.2546   26.8295 H   0  0  0  0  0  0  0  0  0  0  0  0
   34.2188   37.5656   26.4481 H   0  0  0  0  0  0  0  0  0  0  0  0
   34.9624   39.0091   27.1098 H   0  0  0  0  0  0  0  0  0  0  0  0
   33.3094   39.0504   28.9781 H   0  0  0  0  0  0  0  0  0  0  0  0
   34.1027   37.4879   28.9171 H   0  0  0  0  0  0  0  0  0  0  0  0
   35.3518   35.2269   19.1487 O   0  0  0  0  0  0  0  0  0  0  0  0
   37.8252   36.5893   16.0535 C   0  0  0  0  0  0  0  0  0  0  0  0
   38.3867   36.3493   17.3249 C   0  0  0  0  0  0  0  0  0  0  0  0
   37.5513   36.0052   18.4084 C   0  0  0  0  0  0  0  0  0  0  0  0
   36.1813   35.7332   18.1824 C   0  0  0  0  0  0  0  0  0  0  0  0
   35.6860   35.8128   16.8749 C   0  0  0  0  0  0  0  0  0  0  0  0
   36.4709   36.3179   15.8292 C   0  0  0  0  0  0  0  0  0  0  0  0
   38.5521   37.1493   15.0664 F   0  0  0  0  0  0  0  0  0  0  0  0
   39.4306   36.5664   17.4971 H   0  0  0  0  0  0  0  0  0  0  0  0
   38.0740   35.9262   19.6511 F   0  0  0  0  0  0  0  0  0  0  0  0
   34.6548   35.5492   16.6860 H   0  0  0  0  0  0  0  0  0  0  0  0
   36.0360   36.4913   14.8575 H   0  0  0  0  0  0  0  0  0  0  0  0
  1  7  1  0
  1  9  2  0
  1 10  1  0
  2  8  1  0
  2 11  2  0
  2 12  1  0
  3  4  1  0
  3  5  2  0
  3  6  1  0
  4  7  2  0
  4 13  1  0
  5 10  1  0
  5 11  1  0
  6  8  2  0
  6 14  1  0
  7 39  1  0
 10 16  1  0
 12 15  1  0
 12 26  1  0
 16 17  1  0
 16 18  1  0
 16 19  1  0
 17 18  1  0
 17 20  1  0
 17 21  1  0
 18 22  1  0
 18 23  1  0
 24 25  1  0
 24 29  1  0
 24 30  1  0
 24 31  1  0
 25 26  1  0
 25 32  1  0
 25 33  1  0
 26 27  1  0
 26 34  1  0
 27 28  1  0
 27 35  1  0
 27 36  1  0
 28 29  1  0
 28 37  1  0
 28 38  1  0
 39 43  1  0
 40 41  2  0
 40 45  1  0
 40 46  1  0
 41 42  1  0
 41 47  1  0
 42 43  2  0
 42 48  1  0
 43 44  1  0
 44 45  2  0
 44 49  1  0
 45 50  1  0
M  END
>  <s_m_entry_id>  (1) 
832

>  <s_m_Source_Path>  (1) 
/projects/mai/users/kmzp800_harry/pmx_colab/docking_jobs/p38/glide-dock_SP_p38_mcs_docking_2

>  <s_m_Source_File>  (1) 
glide-dock_SP_p38_mcs_docking_2_pv.maegz

>  <i_m_Source_File_Index>  (1) 
16

>  <s_pdb_PDB_TITLE>  (1) 
MX MODEL

>  <r_i_docking_score>  (1) 
-7.25550443827799

>  <r_i_glide_gscore>  (1) 
-7.25550443827799

>  <r_i_glide_emodel>  (1) 
-42.8427930197477

>  <index_string>  (1) 
14:0:0

$$$$
