18:0:0
     RDKit          3D

 53 56  0  0  1  0  0  0  0  0999 V2000
   32.9597   34.3445   14.4719 F   0  0  0  0  0  0  0  0  0  0  0  0
   33.6422   34.7493   15.5686 C   0  0  0  0  0  0  0  0  0  0  0  0
   32.9529   35.1493   16.7229 C   0  0  0  0  0  0  0  0  0  0  0  0
   33.6548   35.4929   17.8934 C   0  0  0  0  0  0  0  0  0  0  0  0
   35.0716   35.5493   17.8869 C   0  0  0  0  0  0  0  0  0  0  0  0
   35.7516   35.2501   16.6870 C   0  0  0  0  0  0  0  0  0  0  0  0
   37.0996   35.3618   16.6223 F   0  0  0  0  0  0  0  0  0  0  0  0
   35.0455   34.7937   15.5602 C   0  0  0  0  0  0  0  0  0  0  0  0
   35.8350   35.8781   18.9860 O   0  0  0  0  0  0  0  0  0  0  0  0
   35.2255   36.3087   20.1328 C   0  0  0  0  0  0  0  0  0  0  0  0
   35.2616   37.6187   20.4159 C   0  0  0  0  0  0  0  0  0  0  0  0
   34.5946   35.3357   21.0369 C   0  0  0  0  0  0  0  0  0  0  0  0
   34.6086   34.1294   20.7767 O   0  0  0  0  0  0  0  0  0  0  0  0
   33.9919   35.8351   22.1620 N   0  0  0  0  0  0  0  0  0  0  0  0
   33.3598   34.8817   23.1042 C   0  0  0  0  0  0  0  0  0  0  0  0
   31.8840   34.5416   22.7807 C   0  0  0  0  0  0  0  0  0  0  0  0
   31.6717   33.6490   21.5408 C   0  0  0  0  0  0  0  0  0  0  0  0
   30.3486   33.1567   21.4891 O   0  0  0  0  0  0  0  0  0  0  0  0
   34.0100   37.2390   22.5072 C   0  0  0  0  0  0  0  0  0  0  0  0
   34.6554   38.1336   21.6268 C   0  0  0  0  0  0  0  0  0  0  0  0
   33.4556   37.7324   23.6413 N   0  0  0  0  0  0  0  0  0  0  0  0
   33.5531   39.0432   23.8857 C   0  0  0  0  0  0  0  0  0  0  0  0
   34.1521   39.9481   23.1170 N   0  0  0  0  0  0  0  0  0  0  0  0
   34.6986   39.4937   21.9773 C   0  0  0  0  0  0  0  0  0  0  0  0
   33.0060   39.5491   25.0461 N   0  0  0  0  0  0  0  0  0  0  0  0
   32.5491   38.7469   26.1743 C   0  0  0  0  0  0  0  0  0  0  0  0
   32.4480   39.6155   27.4351 C   0  0  0  0  0  0  0  0  0  0  0  0
   31.9174   38.7972   28.6223 C   0  0  0  0  0  0  0  0  0  0  0  0
   30.6583   38.2249   28.2888 O   0  0  0  0  0  0  0  0  0  0  0  0
   30.7305   37.3276   27.1859 C   0  0  0  0  0  0  0  0  0  0  0  0
   31.1800   38.0869   25.9262 C   0  0  0  0  0  0  0  0  0  0  0  0
   31.8735   35.1493   16.7347 H   0  0  0  0  0  0  0  0  0  0  0  0
   33.0765   35.7424   18.7696 H   0  0  0  0  0  0  0  0  0  0  0  0
   35.5918   34.4879   14.6893 H   0  0  0  0  0  0  0  0  0  0  0  0
   35.7438   38.3171   19.7471 H   0  0  0  0  0  0  0  0  0  0  0  0
   33.9385   33.9583   23.1711 H   0  0  0  0  0  0  0  0  0  0  0  0
   33.4067   35.2771   24.1189 H   0  0  0  0  0  0  0  0  0  0  0  0
   31.4735   34.0183   23.6453 H   0  0  0  0  0  0  0  0  0  0  0  0
   31.3010   35.4586   22.6892 H   0  0  0  0  0  0  0  0  0  0  0  0
   31.8706   34.2040   20.6237 H   0  0  0  0  0  0  0  0  0  0  0  0
   32.3481   32.7943   21.5595 H   0  0  0  0  0  0  0  0  0  0  0  0
   30.2189   32.7493   20.6216 H   0  0  0  0  0  0  0  0  0  0  0  0
   35.1907   40.2215   21.3552 H   0  0  0  0  0  0  0  0  0  0  0  0
   33.2045   40.5252   25.2341 H   0  0  0  0  0  0  0  0  0  0  0  0
   33.2895   37.9651   26.3515 H   0  0  0  0  0  0  0  0  0  0  0  0
   33.4175   40.0494   27.6830 H   0  0  0  0  0  0  0  0  0  0  0  0
   31.7695   40.4469   27.2467 H   0  0  0  0  0  0  0  0  0  0  0  0
   32.6233   38.0143   28.9032 H   0  0  0  0  0  0  0  0  0  0  0  0
   31.7905   39.4406   29.4933 H   0  0  0  0  0  0  0  0  0  0  0  0
   31.4174   36.5106   27.4119 H   0  0  0  0  0  0  0  0  0  0  0  0
   29.7525   36.8764   27.0315 H   0  0  0  0  0  0  0  0  0  0  0  0
   30.4360   38.8436   25.6730 H   0  0  0  0  0  0  0  0  0  0  0  0
   31.2230   37.3974   25.0832 H   0  0  0  0  0  0  0  0  0  0  0  0
  1  2  1  0
  2  8  2  0
  2  3  1  0
  3  4  2  0
  3 32  1  0
  4  5  1  0
  4 33  1  0
  5  6  2  0
  5  9  1  0
  6  7  1  0
  6  8  1  0
  8 34  1  0
  9 10  1  0
 10 11  2  0
 10 12  1  0
 11 20  1  0
 11 35  1  0
 12 13  2  0
 12 14  1  0
 14 15  1  0
 14 19  1  0
 15 16  1  0
 15 36  1  0
 15 37  1  0
 16 17  1  0
 16 38  1  0
 16 39  1  0
 17 18  1  0
 17 40  1  0
 17 41  1  0
 18 42  1  0
 19 20  2  0
 19 21  1  0
 20 24  1  0
 21 22  2  0
 22 23  1  0
 22 25  1  0
 23 24  2  0
 24 43  1  0
 25 26  1  0
 25 44  1  0
 26 31  1  0
 26 27  1  0
 26 45  1  0
 27 28  1  0
 27 46  1  0
 27 47  1  0
 28 29  1  0
 28 48  1  0
 28 49  1  0
 29 30  1  0
 30 31  1  0
 30 50  1  0
 30 51  1  0
 31 52  1  0
 31 53  1  0
M  END
>  <s_m_entry_id>  (1) 
734

>  <i_f3d_flags>  (1) 
0

>  <r_lp_tautomer_probability>  (1) 
1

>  <r_epik_Ionization_Penalty>  (1) 
  0.0000

>  <r_epik_State_Penalty>  (1) 
  0.0000

>  <i_epik_Tot_Q>  (1) 
0

>  <s_m_job_name>  (1) 
glide-dock_SP_p38_all_ligs_no_cons_10_poses

>  <r_i_docking_score>  (1) 
-7.49576469849167

>  <r_i_glide_gscore>  (1) 
-7.49576469849167

>  <r_i_glide_emodel>  (1) 
-63.6846654377784

>  <index_string>  (1) 
18:0:0

$$$$
