23:0:0
     RDKit          3D

 45 47  0  0  1  0  0  0  0  0999 V2000
   38.5610   36.1759   15.8890 F   0  0  0  0  0  0  0  0  0  0  0  0
   37.5344   35.9677   16.7334 C   0  0  0  0  0  0  0  0  0  0  0  0
   36.3279   35.4438   16.2434 C   0  0  0  0  0  0  0  0  0  0  0  0
   35.2359   35.2751   17.1103 C   0  0  0  0  0  0  0  0  0  0  0  0
   34.0862   34.7495   16.6301 F   0  0  0  0  0  0  0  0  0  0  0  0
   35.3308   35.6552   18.4663 C   0  0  0  0  0  0  0  0  0  0  0  0
   36.5616   36.1647   18.9580 C   0  0  0  0  0  0  0  0  0  0  0  0
   37.6555   36.3282   18.0903 C   0  0  0  0  0  0  0  0  0  0  0  0
   34.2111   35.4943   19.2506 O   0  0  0  0  0  0  0  0  0  0  0  0
   34.1969   36.0514   20.4987 C   0  0  0  0  0  0  0  0  0  0  0  0
   34.0636   37.3836   20.6453 C   0  0  0  0  0  0  0  0  0  0  0  0
   34.3877   35.1578   21.6408 C   0  0  0  0  0  0  0  0  0  0  0  0
   34.5516   33.9494   21.4742 O   0  0  0  0  0  0  0  0  0  0  0  0
   34.4151   35.7383   22.8774 N   0  0  0  0  0  0  0  0  0  0  0  0
   34.6217   34.9020   24.0726 C   0  0  0  0  0  0  0  0  0  0  0  0
   34.2763   37.1508   23.0856 C   0  0  0  0  0  0  0  0  0  0  0  0
   34.1108   37.9897   21.9631 C   0  0  0  0  0  0  0  0  0  0  0  0
   34.3109   37.6938   24.3211 N   0  0  0  0  0  0  0  0  0  0  0  0
   34.1820   39.0131   24.4335 C   0  0  0  0  0  0  0  0  0  0  0  0
   34.0656   39.8877   23.4364 N   0  0  0  0  0  0  0  0  0  0  0  0
   34.0194   39.3748   22.1903 C   0  0  0  0  0  0  0  0  0  0  0  0
   34.1508   39.5493   25.6982 N   0  0  0  0  0  0  0  0  0  0  0  0
   34.4965   38.8144   26.9080 C   0  0  0  0  0  0  0  0  0  0  0  0
   34.0806   39.5624   28.1913 C   0  0  0  0  0  0  0  0  0  0  0  0
   34.4468   38.7340   29.4330 C   0  0  0  0  0  0  0  0  0  0  0  0
   34.8314   40.7583   28.2760 O   0  0  0  0  0  0  0  0  0  0  0  0
   32.5827   39.9129   28.2064 C   0  0  0  0  0  0  0  0  0  0  0  0
   36.2383   35.1770   15.1992 H   0  0  0  0  0  0  0  0  0  0  0  0
   36.6803   36.4522   19.9917 H   0  0  0  0  0  0  0  0  0  0  0  0
   38.5795   36.7434   18.4609 H   0  0  0  0  0  0  0  0  0  0  0  0
   33.9387   38.0294   19.7903 H   0  0  0  0  0  0  0  0  0  0  0  0
   34.7306   33.8330   23.8748 H   0  0  0  0  0  0  0  0  0  0  0  0
   35.5221   35.2228   24.6010 H   0  0  0  0  0  0  0  0  0  0  0  0
   33.7777   35.0136   24.7558 H   0  0  0  0  0  0  0  0  0  0  0  0
   33.9067   40.0730   21.3743 H   0  0  0  0  0  0  0  0  0  0  0  0
   34.0496   40.5575   25.7532 H   0  0  0  0  0  0  0  0  0  0  0  0
   35.5706   38.6193   26.9090 H   0  0  0  0  0  0  0  0  0  0  0  0
   34.0012   37.8425   26.8886 H   0  0  0  0  0  0  0  0  0  0  0  0
   33.8984   37.7900   29.4486 H   0  0  0  0  0  0  0  0  0  0  0  0
   34.2064   39.2668   30.3546 H   0  0  0  0  0  0  0  0  0  0  0  0
   35.5130   38.4988   29.4574 H   0  0  0  0  0  0  0  0  0  0  0  0
   34.5547   41.3384   27.5812 H   0  0  0  0  0  0  0  0  0  0  0  0
   31.9694   39.0190   28.0887 H   0  0  0  0  0  0  0  0  0  0  0  0
   32.2984   40.3820   29.1474 H   0  0  0  0  0  0  0  0  0  0  0  0
   32.3191   40.6008   27.4025 H   0  0  0  0  0  0  0  0  0  0  0  0
  1  2  1  0
  2  8  2  0
  2  3  1  0
  3  4  2  0
  3 28  1  0
  4  5  1  0
  4  6  1  0
  6  7  2  0
  6  9  1  0
  7  8  1  0
  7 29  1  0
  8 30  1  0
  9 10  1  0
 10 11  2  0
 10 12  1  0
 11 17  1  0
 11 31  1  0
 12 13  2  0
 12 14  1  0
 14 15  1  0
 14 16  1  0
 15 32  1  0
 15 33  1  0
 15 34  1  0
 16 17  2  0
 16 18  1  0
 17 21  1  0
 18 19  2  0
 19 20  1  0
 19 22  1  0
 20 21  2  0
 21 35  1  0
 22 23  1  0
 22 36  1  0
 23 24  1  0
 23 37  1  0
 23 38  1  0
 24 25  1  0
 24 26  1  0
 24 27  1  0
 25 39  1  0
 25 40  1  0
 25 41  1  0
 26 42  1  0
 27 43  1  0
 27 44  1  0
 27 45  1  0
M  END
>  <s_m_entry_id>  (1) 
739

>  <i_f3d_flags>  (1) 
0

>  <r_lp_tautomer_probability>  (1) 
1

>  <r_epik_Ionization_Penalty>  (1) 
  0.0000

>  <r_epik_State_Penalty>  (1) 
  0.0000

>  <i_epik_Tot_Q>  (1) 
0

>  <s_m_job_name>  (1) 
glide-dock_SP_p38_all_ligs_no_cons_10_poses

>  <r_i_docking_score>  (1) 
-7.44042584580434

>  <r_i_glide_gscore>  (1) 
-7.44042584580434

>  <r_i_glide_emodel>  (1) 
-55.4830970869478

>  <index_string>  (1) 
23:0:0

$$$$
