5:0:0
     RDKit          3D

 50 52  0  0  1  0  0  0  0  0999 V2000
   41.3871   17.4862   11.8630 O   0  0  0  0  0  0  0  0  0  0  0  0
   40.5939   17.3564   12.8274 C   0  0  0  0  0  0  0  0  0  0  0  0
   39.4598   17.8838   12.8874 O   0  0  0  0  0  0  0  0  0  0  0  0
   41.0235   16.5157   14.0345 C   0  0  0  0  0  0  0  0  0  0  0  0
   42.1750   15.7295   13.7461 O   0  0  0  0  0  0  0  0  0  0  0  0
   42.5543   14.9218   14.7631 C   0  0  0  0  0  0  0  0  0  0  0  0
   42.1574   13.5715   14.9078 C   0  0  0  0  0  0  0  0  0  0  0  0
   40.9825   12.7966   13.6582 Br  0  0  0  0  0  0  0  0  0  0  0  0
   42.6271   12.9131   16.0105 C   0  0  0  0  0  0  0  0  0  0  0  0
   43.6477   13.9809   16.9245 S   0  0  0  0  0  0  0  0  0  0  0  0
   43.3736   15.2894   15.7961 C   0  0  0  0  0  0  0  0  0  0  0  0
   44.0150   16.5552   16.1209 C   0  0  0  0  0  0  0  0  0  0  0  0
   43.9820   17.4872   15.2937 O   0  0  0  0  0  0  0  0  0  0  0  0
   44.5756   16.6863   17.2275 O   0  0  0  0  0  0  0  0  0  0  0  0
   42.3672   11.5581   16.4857 C   0  0  0  0  0  0  0  0  0  0  0  0
   43.3938   10.7780   17.0527 C   0  0  0  0  0  0  0  0  0  0  0  0
   43.1432    9.4658   17.4940 C   0  0  0  0  0  0  0  0  0  0  0  0
   41.8540    8.9167   17.3646 C   0  0  0  0  0  0  0  0  0  0  0  0
   40.8173    9.6747   16.7702 C   0  0  0  0  0  0  0  0  0  0  0  0
   41.0803   10.9946   16.3679 C   0  0  0  0  0  0  0  0  0  0  0  0
   39.5206    9.1954   16.5338 N   0  0  0  0  0  0  0  0  0  0  0  0
   39.1739    7.7797   16.6242 C   0  0  0  0  0  0  0  0  0  0  0  0
   37.6444    7.6021   16.5438 C   0  0  0  0  0  0  0  0  0  0  0  0
   37.0874    7.9079   15.1338 C   0  0  0  0  0  0  0  0  0  0  0  0
   37.7584    7.0885   14.1043 N   0  0  0  0  0  0  0  0  0  0  0  0
   37.0965    5.5065   13.8277 S   0  0  0  0  0  0  0  0  0  0  0  0
   37.5038    4.6384   14.9419 O   0  0  0  0  0  0  0  0  0  0  0  0
   35.6679    5.6842   13.5180 O   0  0  0  0  0  0  0  0  0  0  0  0
   37.9419    4.9493   12.3015 C   0  0  0  0  0  0  0  0  0  0  0  0
   39.2305    7.2547   14.1238 C   0  0  0  0  0  0  0  0  0  0  0  0
   39.8269    6.9365   15.5099 C   0  0  0  0  0  0  0  0  0  0  0  0
   41.2258   17.1895   14.8689 H   0  0  0  0  0  0  0  0  0  0  0  0
   40.1916   15.8722   14.3289 H   0  0  0  0  0  0  0  0  0  0  0  0
   44.3871   11.1881   17.1490 H   0  0  0  0  0  0  0  0  0  0  0  0
   43.9393    8.8805   17.9306 H   0  0  0  0  0  0  0  0  0  0  0  0
   41.6797    7.9061   17.7029 H   0  0  0  0  0  0  0  0  0  0  0  0
   40.2721   11.5811   15.9565 H   0  0  0  0  0  0  0  0  0  0  0  0
   38.9674    9.7377   15.8848 H   0  0  0  0  0  0  0  0  0  0  0  0
   39.5082    7.4153   17.5971 H   0  0  0  0  0  0  0  0  0  0  0  0
   37.3878    6.5775   16.8148 H   0  0  0  0  0  0  0  0  0  0  0  0
   37.1554    8.2367   17.2849 H   0  0  0  0  0  0  0  0  0  0  0  0
   36.0094    7.7300   15.1049 H   0  0  0  0  0  0  0  0  0  0  0  0
   37.2335    8.9606   14.8889 H   0  0  0  0  0  0  0  0  0  0  0  0
   37.4035    4.0972   11.8859 H   0  0  0  0  0  0  0  0  0  0  0  0
   37.9605    5.7749   11.5942 H   0  0  0  0  0  0  0  0  0  0  0  0
   38.9591    4.6405   12.5440 H   0  0  0  0  0  0  0  0  0  0  0  0
   39.6992    6.6329   13.3623 H   0  0  0  0  0  0  0  0  0  0  0  0
   39.4669    8.2848   13.8505 H   0  0  0  0  0  0  0  0  0  0  0  0
   40.9087    7.0817   15.4878 H   0  0  0  0  0  0  0  0  0  0  0  0
   39.6845    5.8786   15.7332 H   0  0  0  0  0  0  0  0  0  0  0  0
  1  2  2  0
  2  3  1  0
  2  4  1  0
  4  5  1  0
  4 32  1  0
  4 33  1  0
  5  6  1  0
  6 11  2  0
  6  7  1  0
  7  8  1  0
  7  9  2  0
  9 10  1  0
  9 15  1  0
 10 11  1  0
 11 12  1  0
 12 13  2  0
 12 14  1  0
 15 20  1  0
 15 16  2  0
 16 17  1  0
 16 34  1  0
 17 18  2  0
 17 35  1  0
 18 19  1  0
 18 36  1  0
 19 20  2  0
 19 21  1  0
 20 37  1  0
 21 22  1  0
 21 38  1  0
 22 31  1  0
 22 23  1  0
 22 39  1  0
 23 24  1  0
 23 40  1  0
 23 41  1  0
 24 25  1  0
 24 42  1  0
 24 43  1  0
 25 26  1  0
 25 30  1  0
 26 27  2  0
 26 28  2  0
 26 29  1  0
 29 44  1  0
 29 45  1  0
 29 46  1  0
 30 31  1  0
 30 47  1  0
 30 48  1  0
 31 49  1  0
 31 50  1  0
M  CHG  2   3  -1  14  -1
M  END
>  <s_m_entry_id>  (1) 
480

>  <i_f3d_flags>  (1) 
0

>  <r_epik_Ionization_Penalty>  (1) 
  0.0005

>  <r_epik_State_Penalty>  (1) 
  0.0002

>  <i_epik_Tot_Q>  (1) 
-2

>  <s_m_job_name>  (1) 
glide-dock_SP_ptp1b_core_cons

>  <r_i_docking_score>  (1) 
-7.32403719952471

>  <r_i_glide_gscore>  (1) 
-7.32423719952471

>  <r_i_glide_emodel>  (1) 
-101.922153737443

>  <index_string>  (1) 
5:0:0

$$$$
