9:0:0
     RDKit          3D

 35 36  0  0  1  0  0  0  0  0999 V2000
   41.3887   17.4862   11.8662 O   0  0  0  0  0  0  0  0  0  0  0  0
   40.5679   17.3434   12.8039 C   0  0  0  0  0  0  0  0  0  0  0  0
   39.4398   17.8863   12.8349 O   0  0  0  0  0  0  0  0  0  0  0  0
   40.9423   16.4661   14.0077 C   0  0  0  0  0  0  0  0  0  0  0  0
   42.0633   15.6293   13.7361 O   0  0  0  0  0  0  0  0  0  0  0  0
   42.4503   14.8636   14.7858 C   0  0  0  0  0  0  0  0  0  0  0  0
   42.0811   13.5047   14.9794 C   0  0  0  0  0  0  0  0  0  0  0  0
   40.9837   12.6864   13.6940 Br  0  0  0  0  0  0  0  0  0  0  0  0
   42.5865   12.8771   16.0955 C   0  0  0  0  0  0  0  0  0  0  0  0
   43.5790   14.0209   16.9533 S   0  0  0  0  0  0  0  0  0  0  0  0
   43.2735   15.2851   15.7910 C   0  0  0  0  0  0  0  0  0  0  0  0
   43.9139   16.5661   16.0650 C   0  0  0  0  0  0  0  0  0  0  0  0
   43.7904   17.5062   15.2521 O   0  0  0  0  0  0  0  0  0  0  0  0
   44.5838   16.6863   17.1099 O   0  0  0  0  0  0  0  0  0  0  0  0
   42.4609   11.5137   16.6490 C   0  0  0  0  0  0  0  0  0  0  0  0
   41.4765   10.5928   16.2114 C   0  0  0  0  0  0  0  0  0  0  0  0
   41.3929    9.2937   16.7499 C   0  0  0  0  0  0  0  0  0  0  0  0
   42.2786    8.8892   17.7627 C   0  0  0  0  0  0  0  0  0  0  0  0
   43.2514    9.7937   18.2305 C   0  0  0  0  0  0  0  0  0  0  0  0
   43.3376   11.0815   17.6757 C   0  0  0  0  0  0  0  0  0  0  0  0
   44.1090    9.4677   19.3023 N   0  0  0  0  0  0  0  0  0  0  0  0
   44.8824    8.3282   19.3780 C   0  0  0  0  0  0  0  0  0  0  0  0
   45.0314    7.4864   18.4939 O   0  0  0  0  0  0  0  0  0  0  0  0
   45.4873    8.3125   20.5719 O   0  0  0  0  0  0  0  0  0  0  0  0
   46.3088    7.2165   20.9296 C   0  0  0  0  0  0  0  0  0  0  0  0
   41.1434   17.1187   14.8584 H   0  0  0  0  0  0  0  0  0  0  0  0
   40.0852   15.8477   14.2745 H   0  0  0  0  0  0  0  0  0  0  0  0
   40.7459   10.8558   15.4677 H   0  0  0  0  0  0  0  0  0  0  0  0
   40.6332    8.6117   16.3970 H   0  0  0  0  0  0  0  0  0  0  0  0
   42.1885    7.9018   18.1933 H   0  0  0  0  0  0  0  0  0  0  0  0
   44.1079   11.7290   18.0641 H   0  0  0  0  0  0  0  0  0  0  0  0
   44.2205   10.1308   20.0547 H   0  0  0  0  0  0  0  0  0  0  0  0
   46.7001    7.3605   21.9366 H   0  0  0  0  0  0  0  0  0  0  0  0
   45.7383    6.2867   20.9162 H   0  0  0  0  0  0  0  0  0  0  0  0
   47.1535    7.1234   20.2464 H   0  0  0  0  0  0  0  0  0  0  0  0
  1  2  2  0
  2  3  1  0
  2  4  1  0
  4  5  1  0
  4 26  1  0
  4 27  1  0
  5  6  1  0
  6 11  2  0
  6  7  1  0
  7  8  1  0
  7  9  2  0
  9 10  1  0
  9 15  1  0
 10 11  1  0
 11 12  1  0
 12 13  2  0
 12 14  1  0
 15 20  1  0
 15 16  2  0
 16 17  1  0
 16 28  1  0
 17 18  2  0
 17 29  1  0
 18 19  1  0
 18 30  1  0
 19 20  2  0
 19 21  1  0
 20 31  1  0
 21 22  1  0
 21 32  1  0
 22 23  2  0
 22 24  1  0
 24 25  1  0
 25 33  1  0
 25 34  1  0
 25 35  1  0
M  CHG  2   3  -1  14  -1
M  END
>  <s_m_entry_id>  (1) 
462

>  <i_f3d_flags>  (1) 
0

>  <r_epik_Ionization_Penalty>  (1) 
  0.0001

>  <r_epik_State_Penalty>  (1) 
  0.0000

>  <i_epik_Tot_Q>  (1) 
-2

>  <s_m_job_name>  (1) 
glide-dock_SP_ptp1b_no_cons

>  <r_lp_tautomer_probability>  (1) 
1

>  <r_i_docking_score>  (1) 
-7.64930242957211

>  <r_i_glide_gscore>  (1) 
-7.64930242957211

>  <r_i_glide_emodel>  (1) 
-99.0968510294841

>  <index_string>  (1) 
9:0:0

$$$$
