11:0:0
     RDKit          3D

 60 63  0  0  1  0  0  0  0  0999 V2000
   39.4727   17.8855   12.7664 O   0  0  0  0  0  0  0  0  0  0  0  0
   40.5762   17.2987   12.6887 C   0  0  0  0  0  0  0  0  0  0  0  0
   41.3990   17.4711   11.7581 O   0  0  0  0  0  0  0  0  0  0  0  0
   40.8934   16.2937   13.8025 C   0  0  0  0  0  0  0  0  0  0  0  0
   42.1902   15.7232   13.6701 O   0  0  0  0  0  0  0  0  0  0  0  0
   42.5398   14.9152   14.7002 C   0  0  0  0  0  0  0  0  0  0  0  0
   42.1447   13.5611   14.8507 C   0  0  0  0  0  0  0  0  0  0  0  0
   41.1080   12.8824   13.6940 Cl  0  0  0  0  0  0  0  0  0  0  0  0
   42.6053   12.9355   15.9752 C   0  0  0  0  0  0  0  0  0  0  0  0
   43.6177   14.0077   16.8838 S   0  0  0  0  0  0  0  0  0  0  0  0
   43.3374   15.3039   15.7369 C   0  0  0  0  0  0  0  0  0  0  0  0
   43.9348   16.5880   16.0682 C   0  0  0  0  0  0  0  0  0  0  0  0
   43.7852   17.5563   15.2939 O   0  0  0  0  0  0  0  0  0  0  0  0
   44.5859   16.6862   17.1287 O   0  0  0  0  0  0  0  0  0  0  0  0
   42.3518   11.5851   16.4613 C   0  0  0  0  0  0  0  0  0  0  0  0
   43.3982   10.8205   17.0143 C   0  0  0  0  0  0  0  0  0  0  0  0
   43.1730    9.5031   17.4457 C   0  0  0  0  0  0  0  0  0  0  0  0
   41.8928    8.9389   17.3251 C   0  0  0  0  0  0  0  0  0  0  0  0
   40.8319    9.6810   16.7727 C   0  0  0  0  0  0  0  0  0  0  0  0
   41.0688   11.0038   16.3520 C   0  0  0  0  0  0  0  0  0  0  0  0
   39.5527    9.1399   16.6081 N   0  0  0  0  0  0  0  0  0  0  0  0
   39.1734    7.8496   17.1820 C   0  0  0  0  0  0  0  0  0  0  0  0
   39.1432    7.8530   18.7233 C   0  0  0  0  0  0  0  0  0  0  0  0
   38.1031    8.8381   19.2695 C   0  0  0  0  0  0  0  0  0  0  0  0
   36.7669    8.6040   18.6874 N   0  0  0  0  0  0  0  0  0  0  0  0
   36.6957    8.4017   17.2255 C   0  0  0  0  0  0  0  0  0  0  0  0
   37.7799    7.4442   16.7045 C   0  0  0  0  0  0  0  0  0  0  0  0
   35.4209    8.1831   19.6930 S   0  0  0  0  0  0  0  0  0  0  0  0
   35.7296    8.6307   21.0596 O   0  0  0  0  0  0  0  0  0  0  0  0
   34.2193    8.6853   19.0115 O   0  0  0  0  0  0  0  0  0  0  0  0
   35.4319    6.3326   19.6643 C   0  0  0  0  0  0  0  0  0  0  0  0
   34.3999    5.7791   18.6915 C   0  0  0  0  0  0  0  0  0  0  0  0
   34.8112    5.1325   17.5079 C   0  0  0  0  0  0  0  0  0  0  0  0
   33.8551    4.6170   16.6108 C   0  0  0  0  0  0  0  0  0  0  0  0
   32.4819    4.7360   16.8939 C   0  0  0  0  0  0  0  0  0  0  0  0
   32.0637    5.3746   18.0755 C   0  0  0  0  0  0  0  0  0  0  0  0
   33.0203    5.8877   18.9740 C   0  0  0  0  0  0  0  0  0  0  0  0
   40.7952   16.8006   14.7647 H   0  0  0  0  0  0  0  0  0  0  0  0
   40.1503   15.4967   13.7701 H   0  0  0  0  0  0  0  0  0  0  0  0
   44.3880   11.2386   17.0922 H   0  0  0  0  0  0  0  0  0  0  0  0
   43.9842    8.9264   17.8667 H   0  0  0  0  0  0  0  0  0  0  0  0
   41.7615    7.9194   17.6480 H   0  0  0  0  0  0  0  0  0  0  0  0
   40.2494   11.5703   15.9330 H   0  0  0  0  0  0  0  0  0  0  0  0
   38.9075    9.6043   15.9816 H   0  0  0  0  0  0  0  0  0  0  0  0
   39.8814    7.0987   16.8277 H   0  0  0  0  0  0  0  0  0  0  0  0
   38.9138    6.8504   19.0839 H   0  0  0  0  0  0  0  0  0  0  0  0
   40.1161    8.0952   19.1457 H   0  0  0  0  0  0  0  0  0  0  0  0
   38.0688    8.7646   20.3552 H   0  0  0  0  0  0  0  0  0  0  0  0
   38.4055    9.8615   19.0439 H   0  0  0  0  0  0  0  0  0  0  0  0
   35.7291    7.9946   16.9540 H   0  0  0  0  0  0  0  0  0  0  0  0
   36.7754    9.3700   16.7317 H   0  0  0  0  0  0  0  0  0  0  0  0
   37.7474    7.4016   15.6148 H   0  0  0  0  0  0  0  0  0  0  0  0
   37.5723    6.4324   17.0536 H   0  0  0  0  0  0  0  0  0  0  0  0
   36.4419    5.9878   19.4417 H   0  0  0  0  0  0  0  0  0  0  0  0
   35.1907    5.9900   20.6691 H   0  0  0  0  0  0  0  0  0  0  0  0
   35.8591    5.0128   17.2823 H   0  0  0  0  0  0  0  0  0  0  0  0
   34.1832    4.1183   15.7107 H   0  0  0  0  0  0  0  0  0  0  0  0
   31.7542    4.3309   16.2043 H   0  0  0  0  0  0  0  0  0  0  0  0
   31.0097    5.4665   18.2996 H   0  0  0  0  0  0  0  0  0  0  0  0
   32.6880    6.3739   19.8817 H   0  0  0  0  0  0  0  0  0  0  0  0
  1  2  2  0
  2  3  1  0
  2  4  1  0
  4  5  1  0
  4 38  1  0
  4 39  1  0
  5  6  1  0
  6 11  2  0
  6  7  1  0
  7  8  1  0
  7  9  2  0
  9 10  1  0
  9 15  1  0
 10 11  1  0
 11 12  1  0
 12 13  2  0
 12 14  1  0
 15 20  1  0
 15 16  2  0
 16 17  1  0
 16 40  1  0
 17 18  2  0
 17 41  1  0
 18 19  1  0
 18 42  1  0
 19 20  2  0
 19 21  1  0
 20 43  1  0
 21 22  1  0
 21 44  1  0
 22 27  1  0
 22 23  1  0
 22 45  1  0
 23 24  1  0
 23 46  1  0
 23 47  1  0
 24 25  1  0
 24 48  1  0
 24 49  1  0
 25 26  1  0
 25 28  1  0
 26 27  1  0
 26 50  1  0
 26 51  1  0
 27 52  1  0
 27 53  1  0
 28 29  2  0
 28 30  2  0
 28 31  1  0
 31 32  1  0
 31 54  1  0
 31 55  1  0
 32 37  1  0
 32 33  2  0
 33 34  1  0
 33 56  1  0
 34 35  2  0
 34 57  1  0
 35 36  1  0
 35 58  1  0
 36 37  2  0
 36 59  1  0
 37 60  1  0
M  CHG  2   3  -1  14  -1
M  END
>  <s_m_entry_id>  (1) 
486

>  <i_f3d_flags>  (1) 
0

>  <r_epik_Ionization_Penalty>  (1) 
  0.0005

>  <r_epik_State_Penalty>  (1) 
  0.0002

>  <i_epik_Tot_Q>  (1) 
-2

>  <s_m_job_name>  (1) 
glide-dock_SP_ptp1b_core_cons

>  <r_i_docking_score>  (1) 
-7.54206151672868

>  <r_i_glide_gscore>  (1) 
-7.54226151672868

>  <r_i_glide_emodel>  (1) 
-108.198690374042

>  <index_string>  (1) 
11:0:0

$$$$
