10:0:0
     RDKit          3D

 56 59  0  0  1  0  0  0  0  0999 V2000
   32.9620   34.5870   21.9830 N   0  0  0  0  0  0  0  0  0  0  0  0
   33.2400   34.4730   20.6440 C   0  0  0  0  0  0  0  0  0  0  0  0
   33.2960   33.3370   20.0980 O   0  0  0  0  0  0  0  0  0  0  0  0
   33.4610   35.6170   19.8600 C   0  0  0  0  0  0  0  0  0  0  0  0
   33.3560   36.8790   20.4540 C   0  0  0  0  0  0  0  0  0  0  0  0
   33.0480   36.9840   21.8040 C   0  0  0  0  0  0  0  0  0  0  0  0
   32.9260   38.2250   22.4200 C   0  0  0  0  0  0  0  0  0  0  0  0
   32.6120   38.2950   23.7390 N   0  0  0  0  0  0  0  0  0  0  0  0
   32.4090   37.1660   24.4740 C   0  0  0  0  0  0  0  0  0  0  0  0
   32.0750   37.2500   25.8600 N   0  0  0  0  0  0  0  0  0  0  0  0
   32.5230   35.9460   23.8860 N   0  0  0  0  0  0  0  0  0  0  0  0
   32.8430   35.8220   22.5680 C   0  0  0  0  0  0  0  0  0  0  0  0
   31.9760   38.5150   26.5760 C   0  0  0  0  0  0  0  0  0  0  0  0
   33.3790   39.0270   26.9390 C   0  0  0  0  0  0  0  0  0  0  0  0
   33.8980   38.4400   28.2600 C   0  0  0  0  0  0  0  0  0  0  0  0
   33.1390   37.3270   28.6580 O   0  0  0  0  0  0  0  0  0  0  0  0
   31.8850   37.8360   29.0370 C   0  0  0  0  0  0  0  0  0  0  0  0
   31.0920   38.3320   27.8170 C   0  0  0  0  0  0  0  0  0  0  0  0
   32.7550   33.3760   22.7890 C   0  0  0  0  0  0  0  0  0  0  0  0
   31.3400   32.8050   22.6430 C   0  0  0  0  0  0  0  0  0  0  0  0
   30.6040   33.0080   23.9500 C   0  0  0  0  0  0  0  0  0  0  0  0
   31.3780   31.3200   22.3380 C   0  0  0  0  0  0  0  0  0  0  0  0
   30.6480   33.4660   21.6290 O   0  0  0  0  0  0  0  0  0  0  0  0
   33.7400   35.4740   18.4920 O   0  0  0  0  0  0  0  0  0  0  0  0
   35.0110   35.5890   17.9140 C   0  0  0  0  0  0  0  0  0  0  0  0
   36.1050   35.8340   18.7520 C   0  0  0  0  0  0  0  0  0  0  0  0
   37.3900   35.9660   18.2180 C   0  0  0  0  0  0  0  0  0  0  0  0
   37.5890   35.8620   16.8400 C   0  0  0  0  0  0  0  0  0  0  0  0
   38.8340   35.9890   16.3240 F   0  0  0  0  0  0  0  0  0  0  0  0
   36.5000   35.6450   15.9930 C   0  0  0  0  0  0  0  0  0  0  0  0
   35.2120   35.5110   16.5210 C   0  0  0  0  0  0  0  0  0  0  0  0
   34.1660   35.3620   15.6720 F   0  0  0  0  0  0  0  0  0  0  0  0
   33.5170   37.7862   19.8531 H   0  0  0  0  0  0  0  0  0  0  0  0
   33.0834   39.1466   21.8405 H   0  0  0  0  0  0  0  0  0  0  0  0
   31.8961   36.3771   26.3766 H   0  0  0  0  0  0  0  0  0  0  0  0
   31.5063   39.2745   25.9337 H   0  0  0  0  0  0  0  0  0  0  0  0
   34.0746   38.7502   26.1330 H   0  0  0  0  0  0  0  0  0  0  0  0
   33.3142   40.1182   27.0618 H   0  0  0  0  0  0  0  0  0  0  0  0
   34.9452   38.1305   28.1275 H   0  0  0  0  0  0  0  0  0  0  0  0
   33.8156   39.2124   29.0388 H   0  0  0  0  0  0  0  0  0  0  0  0
   31.3123   37.0416   29.5379 H   0  0  0  0  0  0  0  0  0  0  0  0
   32.0461   38.6865   29.7158 H   0  0  0  0  0  0  0  0  0  0  0  0
   30.6294   39.2984   28.0661 H   0  0  0  0  0  0  0  0  0  0  0  0
   30.3348   37.5705   27.5785 H   0  0  0  0  0  0  0  0  0  0  0  0
   33.4781   32.6116   22.4683 H   0  0  0  0  0  0  0  0  0  0  0  0
   32.8960   33.6506   23.8448 H   0  0  0  0  0  0  0  0  0  0  0  0
   31.2890   32.8191   24.7897 H   0  0  0  0  0  0  0  0  0  0  0  0
   30.2329   34.0420   24.0051 H   0  0  0  0  0  0  0  0  0  0  0  0
   29.7553   32.3104   24.0051 H   0  0  0  0  0  0  0  0  0  0  0  0
   31.3925   30.7524   23.2802 H   0  0  0  0  0  0  0  0  0  0  0  0
   30.4867   31.0422   21.7563 H   0  0  0  0  0  0  0  0  0  0  0  0
   32.2824   31.0882   21.7563 H   0  0  0  0  0  0  0  0  0  0  0  0
   29.9934   34.0913   22.0296 H   0  0  0  0  0  0  0  0  0  0  0  0
   35.9526   35.9232   19.8377 H   0  0  0  0  0  0  0  0  0  0  0  0
   38.2454   36.1520   18.8842 H   0  0  0  0  0  0  0  0  0  0  0  0
   36.6560   35.5792   14.9061 H   0  0  0  0  0  0  0  0  0  0  0  0
  1 12  1  0
  1 19  1  0
  1  2  1  0
  2  3  2  0
  2  4  1  0
  4  5  2  0
  4 24  1  0
  5  6  1  0
  5 33  1  0
  6  7  1  0
  6 12  2  0
  7  8  2  0
  7 34  1  0
  8  9  1  0
  9 10  1  0
  9 11  2  0
 10 13  1  0
 10 35  1  0
 11 12  1  0
 13 14  1  0
 13 18  1  0
 13 36  1  0
 14 15  1  0
 14 37  1  0
 14 38  1  0
 15 16  1  0
 15 39  1  0
 15 40  1  0
 16 17  1  0
 17 18  1  0
 17 41  1  0
 17 42  1  0
 18 43  1  0
 18 44  1  0
 19 20  1  0
 19 45  1  0
 19 46  1  0
 20 21  1  0
 20 22  1  0
 20 23  1  0
 21 47  1  0
 21 48  1  0
 21 49  1  0
 22 50  1  0
 22 51  1  0
 22 52  1  0
 23 53  1  0
 24 25  1  0
 25 26  2  0
 25 31  1  0
 26 27  1  0
 26 54  1  0
 27 28  2  0
 27 55  1  0
 28 29  1  0
 28 30  1  0
 30 31  2  0
 30 56  1  0
 31 32  1  0
M  END
>  <s_m_entry_id>  (1) 
1365

>  <MODEL>  (1) 
1

>  <REMARK>  (1) 
 VINA RESULT:    -8.318      0.000      0.000
 INTER + INTRA:         -11.639
 INTER:                 -10.992
 INTRA:                  -0.647
 UNBOUND:                -0.647
  Name = /scratch/kmzp800/tmp8cp3_pu6/tmpntmj4iv_.pdb
  8 active torsions:
  status: ('A' for Active; 'I' for Inactive)
    1  A    between atoms: O1_1  and  C1_2
    2  A    between atoms: C1_2  and  C2_3
    3  A    between atoms: C1_2  and  C3_4
    4  A    between atoms: C1_2  and  C4_5
    5  A    between atoms: C4_5  and  N1_6
    6  A    between atoms: C6_9  and  O3_10
    7  A    between atoms: O3_10  and  C7_11
    8  A    between atoms: N3_24  and  C17_25
                            x       y       z     vdW  Elec       q    Type
                         _______ _______ _______ _____ _____    ______ ____

>  <TORSDO>  (1) 
F 6

>  <grid_id>  (1) 
p38-prepared

>  <grid_path>  (1) 
/projects/mai/users/kmzp800_harry/pmx_colab/docking_jobs/p38/vina_docking/input_files/p38_vina.pdbqt

>  <grid_filename>  (1) 
p38_vina.pdbqt

>  <docking_score>  (1) 
-8.318

>  <compound_name>  (1) 
lig_p38a_2r

>  <index_string>  (1) 
10:0:0

>  <s_m_Source_Path>  (1) 
/projects/mai/users/kmzp800_harry/pmx_colab/docking_jobs/p38

>  <s_m_Source_File>  (1) 
p38_confs_vina_naive.sdf

>  <i_m_Source_File_Index>  (1) 
12

$$$$
