17:0:0
     RDKit          3D

 65 70  0  0  1  0  0  0  0  0999 V2000
    1.8380    0.9720   13.3190 C   0  0  0  0  0  0  0  0  0  0  0  0
    3.1840    0.5900   13.4170 C   0  0  0  0  0  0  0  0  0  0  0  0
    4.1610    1.2570   12.6730 C   0  0  0  0  0  0  0  0  0  0  0  0
    3.8000    2.3080   11.8260 C   0  0  0  0  0  0  0  0  0  0  0  0
    2.4570    2.7010   11.7140 C   0  0  0  0  0  0  0  0  0  0  0  0
    1.4850    2.0250   12.4650 C   0  0  0  0  0  0  0  0  0  0  0  0
    2.0580    3.8080   10.8220 C   0  0  0  0  0  0  0  0  0  0  0  0
    0.7290    4.0800   10.6240 N   0  0  0  0  0  0  0  0  0  0  0  0
    0.3050    5.0910    9.8120 C   0  0  0  0  0  0  0  0  0  0  0  0
   -1.0890    5.3670    9.6140 N   0  0  0  0  0  0  0  0  0  0  0  0
    1.2770    5.8660    9.1840 C   0  0  0  0  0  0  0  0  0  0  0  0
    1.0690    6.9040    8.3560 N   0  0  0  0  0  0  0  0  0  0  0  0
    2.3220    7.3000    8.0200 C   0  0  0  0  0  0  0  0  0  0  0  0
    3.2660    6.4920    8.6510 C   0  0  0  0  0  0  0  0  0  0  0  0
    2.5720    5.6030    9.3750 N   0  0  0  0  0  0  0  0  0  0  0  0
    3.0210    4.6010   10.1680 C   0  0  0  0  0  0  0  0  0  0  0  0
   -2.1970    4.5840   10.0800 C   0  0  0  0  0  0  0  0  0  0  0  0
   -2.4670    3.3040    9.5790 C   0  0  0  0  0  0  0  0  0  0  0  0
   -3.5700    2.5830   10.0410 C   0  0  0  0  0  0  0  0  0  0  0  0
   -4.4240    3.1350   11.0090 C   0  0  0  0  0  0  0  0  0  0  0  0
   -4.1590    4.4160   11.5170 C   0  0  0  0  0  0  0  0  0  0  0  0
   -3.0470    5.1320   11.0450 C   0  0  0  0  0  0  0  0  0  0  0  0
   -5.5400    2.4320   11.4780 O   0  0  0  0  0  0  0  0  0  0  0  0
   -6.7080    2.2290   10.6940 C   0  0  0  0  0  0  0  0  0  0  0  0
   -5.0130    4.9570   12.4840 O   0  0  0  0  0  0  0  0  0  0  0  0
   -4.5760    5.8980   13.4560 C   0  0  0  0  0  0  0  0  0  0  0  0
    0.0620   -0.7960   13.5180 N   0  0  0  0  0  0  0  0  0  0  0  0
    0.8030    0.2820   14.1080 C   0  0  0  0  0  0  0  0  0  0  0  0
    0.5690    0.6510   15.2930 O   0  0  0  0  0  0  0  0  0  0  0  0
   -2.9330   -3.1420   15.4040 C   0  0  0  0  0  0  0  0  0  0  0  0
   -3.2960   -2.2070   14.4250 C   0  0  0  0  0  0  0  0  0  0  0  0
   -2.3200   -1.4290   13.7960 C   0  0  0  0  0  0  0  0  0  0  0  0
   -0.9680   -1.5770   14.1380 C   0  0  0  0  0  0  0  0  0  0  0  0
   -0.6070   -2.5080   15.1150 C   0  0  0  0  0  0  0  0  0  0  0  0
   -1.5830   -3.2870   15.7450 C   0  0  0  0  0  0  0  0  0  0  0  0
   -5.5450   -5.3830   16.5010 C   0  0  0  0  0  0  0  0  0  0  0  0
   -5.1940   -4.7630   17.6440 N   0  0  0  0  0  0  0  0  0  0  0  0
   -4.2300   -3.8980   17.3860 N   0  0  0  0  0  0  0  0  0  0  0  0
   -3.9580   -3.9630   16.0720 C   0  0  0  0  0  0  0  0  0  0  0  0
   -4.7720   -4.8980   15.4600 C   0  0  0  0  0  0  0  0  0  0  0  0
    3.4717   -0.2377   14.0820 H   0  0  0  0  0  0  0  0  0  0  0  0
    5.2154    0.9543   12.7543 H   0  0  0  0  0  0  0  0  0  0  0  0
    4.5729    2.8307   11.2434 H   0  0  0  0  0  0  0  0  0  0  0  0
    0.4301    2.3257   12.3825 H   0  0  0  0  0  0  0  0  0  0  0  0
   -1.3186    6.2177    9.0806 H   0  0  0  0  0  0  0  0  0  0  0  0
    2.5587    8.1374    7.3471 H   0  0  0  0  0  0  0  0  0  0  0  0
    4.3604    6.5685    8.5709 H   0  0  0  0  0  0  0  0  0  0  0  0
    4.0973    4.4136   10.2965 H   0  0  0  0  0  0  0  0  0  0  0  0
   -1.8063    2.8643    8.8173 H   0  0  0  0  0  0  0  0  0  0  0  0
   -3.7709    1.5769    9.6443 H   0  0  0  0  0  0  0  0  0  0  0  0
   -2.8420    6.1379   11.4401 H   0  0  0  0  0  0  0  0  0  0  0  0
   -7.5729    2.0787   11.3568 H   0  0  0  0  0  0  0  0  0  0  0  0
   -6.8813    3.1105   10.0592 H   0  0  0  0  0  0  0  0  0  0  0  0
   -6.5737    1.3407   10.0592 H   0  0  0  0  0  0  0  0  0  0  0  0
   -4.7619    5.4976   14.4635 H   0  0  0  0  0  0  0  0  0  0  0  0
   -3.4994    6.0839   13.3283 H   0  0  0  0  0  0  0  0  0  0  0  0
   -5.1286    6.8405   13.3283 H   0  0  0  0  0  0  0  0  0  0  0  0
    0.2954   -1.0345   12.5436 H   0  0  0  0  0  0  0  0  0  0  0  0
   -4.3541   -2.0849   14.1504 H   0  0  0  0  0  0  0  0  0  0  0  0
   -2.6137   -0.6972   13.0291 H   0  0  0  0  0  0  0  0  0  0  0  0
    0.4510   -2.6291   15.3904 H   0  0  0  0  0  0  0  0  0  0  0  0
   -1.2882   -4.0176   16.5126 H   0  0  0  0  0  0  0  0  0  0  0  0
   -6.3240   -6.1541   16.4091 H   0  0  0  0  0  0  0  0  0  0  0  0
   -3.7684   -3.2825   18.0709 H   0  0  0  0  0  0  0  0  0  0  0  0
   -4.7990   -5.1875   14.3991 H   0  0  0  0  0  0  0  0  0  0  0  0
  1  2  2  0
  1 28  1  0
  1  6  1  0
  2  3  1  0
  3  4  2  0
  4  5  1  0
  5  6  2  0
  5  7  1  0
  7  8  1  0
  7 16  2  0
  8  9  2  0
  9 10  1  0
  9 11  1  0
 10 17  1  0
 11 15  1  0
 11 12  2  0
 12 13  1  0
 13 14  2  0
 14 15  1  0
 15 16  1  0
 17 22  1  0
 17 18  2  0
 18 19  1  0
 19 20  2  0
 20 23  1  0
 20 21  1  0
 21 25  1  0
 21 22  2  0
 23 24  1  0
 25 26  1  0
 27 28  1  0
 27 33  1  0
 28 29  2  0
 30 35  1  0
 30 39  1  0
 30 31  2  0
 31 32  1  0
 32 33  2  0
 33 34  1  0
 34 35  2  0
 36 37  2  0
 36 40  1  0
 37 38  1  0
 38 39  1  0
 39 40  2  0
  2 41  1  0
  3 42  1  0
  4 43  1  0
  6 44  1  0
 10 45  1  0
 13 46  1  0
 14 47  1  0
 16 48  1  0
 18 49  1  0
 19 50  1  0
 22 51  1  0
 24 52  1  0
 24 53  1  0
 24 54  1  0
 26 55  1  0
 26 56  1  0
 26 57  1  0
 27 58  1  0
 31 59  1  0
 32 60  1  0
 34 61  1  0
 35 62  1  0
 36 63  1  0
 38 64  1  0
 40 65  1  0
M  END
>  <s_m_entry_id>  (1) 
18

>  <MODEL>  (1) 
1

>  <REMARK>  (1) 
 VINA RESULT:    -8.795      0.000      0.000
 INTER + INTRA:         -13.799
 INTER:                 -12.394
 INTRA:                  -1.404
 UNBOUND:                -1.404
  Name = /scratch/kmzp800/tmp9ux1o8mb/tmp67mctsjl.pdb
  9 active torsions:
  status: ('A' for Active; 'I' for Inactive)
    1  A    between atoms: C2_4  and  C3_5
    2  A    between atoms: C6_8  and  N3_9
    3  A    between atoms: C7_10  and  C8_12
    4  A    between atoms: C12_16  and  C13_17
    5  A    between atoms: N5_20  and  C15_21
    6  A    between atoms: C18_24  and  O2_25
    7  A    between atoms: O2_25  and  C19_26
    8  A    between atoms: C20_27  and  O3_28
    9  A    between atoms: O3_28  and  C21_29
                            x       y       z     vdW  Elec       q    Type
                         _______ _______ _______ _____ _____    ______ ____

>  <TORSDO>  (1) 
F 7

>  <grid_id>  (1) 
syk-prepared

>  <grid_path>  (1) 
syk_vina.pdbqt

>  <grid_filename>  (1) 
syk_vina.pdbqt

>  <docking_score>  (1) 
-8.795

>  <compound_name>  (1) 
CHEMBL3265003

>  <index_string>  (1) 
17:0:0

>  <s_m_Source_Path>  (1) 
/projects/mai/users/kmzp800_harry/pmx_colab/docking_jobs/syk/vina_prep/output

>  <s_m_Source_File>  (1) 
ptp1b_docked_conformers.sdf

>  <i_m_Source_File_Index>  (1) 
18

$$$$
