14:0:0
     RDKit          3D

 42 44  0  0  1  0  0  0  0  0999 V2000
   41.3878   17.4853   11.8420 O   0  0  0  0  0  0  0  0  0  0  0  0
   40.5928   17.3614   12.8046 C   0  0  0  0  0  0  0  0  0  0  0  0
   39.4572   17.8863   12.8516 O   0  0  0  0  0  0  0  0  0  0  0  0
   41.0203   16.5291   14.0216 C   0  0  0  0  0  0  0  0  0  0  0  0
   42.1758   15.7417   13.7454 O   0  0  0  0  0  0  0  0  0  0  0  0
   42.5524   14.9322   14.7634 C   0  0  0  0  0  0  0  0  0  0  0  0
   42.1617   13.5839   14.9088 C   0  0  0  0  0  0  0  0  0  0  0  0
   40.9837   12.7804   13.6855 Br  0  0  0  0  0  0  0  0  0  0  0  0
   42.6173   12.9262   16.0181 C   0  0  0  0  0  0  0  0  0  0  0  0
   43.6436   13.9817   16.9310 S   0  0  0  0  0  0  0  0  0  0  0  0
   43.3747   15.2926   15.7991 C   0  0  0  0  0  0  0  0  0  0  0  0
   44.0202   16.5553   16.1218 C   0  0  0  0  0  0  0  0  0  0  0  0
   44.5838   16.6863   17.2266 O   0  0  0  0  0  0  0  0  0  0  0  0
   43.9892   17.4863   15.2939 O   0  0  0  0  0  0  0  0  0  0  0  0
   42.3498   11.5739   16.4989 C   0  0  0  0  0  0  0  0  0  0  0  0
   43.3847   10.7869   17.0404 C   0  0  0  0  0  0  0  0  0  0  0  0
   43.1415    9.4743   17.4828 C   0  0  0  0  0  0  0  0  0  0  0  0
   41.8511    8.9290   17.3736 C   0  0  0  0  0  0  0  0  0  0  0  0
   40.8016    9.6943   16.8321 C   0  0  0  0  0  0  0  0  0  0  0  0
   41.0553   11.0192   16.4161 C   0  0  0  0  0  0  0  0  0  0  0  0
   39.5453    9.0912   16.6788 N   0  0  0  0  0  0  0  0  0  0  0  0
   38.8634    9.2927   15.4048 C   0  0  0  0  0  0  0  0  0  0  0  0
   38.7133    8.0355   14.5692 C   0  0  0  0  0  0  0  0  0  0  0  0
   37.4416    7.6495   14.0950 C   0  0  0  0  0  0  0  0  0  0  0  0
   37.3036    6.4985   13.2941 C   0  0  0  0  0  0  0  0  0  0  0  0
   38.4384    5.7361   12.9537 C   0  0  0  0  0  0  0  0  0  0  0  0
   39.7101    6.1217   13.4199 C   0  0  0  0  0  0  0  0  0  0  0  0
   39.8467    7.2676   14.2271 C   0  0  0  0  0  0  0  0  0  0  0  0
   41.2151   17.2062   14.8544 H   0  0  0  0  0  0  0  0  0  0  0  0
   40.1898   15.8857   14.3160 H   0  0  0  0  0  0  0  0  0  0  0  0
   44.3827   11.1894   17.1085 H   0  0  0  0  0  0  0  0  0  0  0  0
   43.9468    8.8831   17.8932 H   0  0  0  0  0  0  0  0  0  0  0  0
   41.6752    7.9135   17.6983 H   0  0  0  0  0  0  0  0  0  0  0  0
   40.2428   11.6173   16.0334 H   0  0  0  0  0  0  0  0  0  0  0  0
   39.4740    8.1435   17.0209 H   0  0  0  0  0  0  0  0  0  0  0  0
   37.8790    9.7109   15.6119 H   0  0  0  0  0  0  0  0  0  0  0  0
   39.3838   10.0136   14.7764 H   0  0  0  0  0  0  0  0  0  0  0  0
   36.5685    8.2347   14.3429 H   0  0  0  0  0  0  0  0  0  0  0  0
   36.3284    6.2006   12.9387 H   0  0  0  0  0  0  0  0  0  0  0  0
   38.3344    4.8544   12.3386 H   0  0  0  0  0  0  0  0  0  0  0  0
   40.5816    5.5354   13.1646 H   0  0  0  0  0  0  0  0  0  0  0  0
   40.8263    7.5569   14.5785 H   0  0  0  0  0  0  0  0  0  0  0  0
  1  2  2  0
  2  3  1  0
  2  4  1  0
  4  5  1  0
  4 29  1  0
  4 30  1  0
  5  6  1  0
  6 11  2  0
  6  7  1  0
  7  8  1  0
  7  9  2  0
  9 10  1  0
  9 15  1  0
 10 11  1  0
 11 12  1  0
 12 13  2  0
 12 14  1  0
 15 20  1  0
 15 16  2  0
 16 17  1  0
 16 31  1  0
 17 18  2  0
 17 32  1  0
 18 19  1  0
 18 33  1  0
 19 20  2  0
 19 21  1  0
 20 34  1  0
 21 22  1  0
 21 35  1  0
 22 23  1  0
 22 36  1  0
 22 37  1  0
 23 28  1  0
 23 24  2  0
 24 25  1  0
 24 38  1  0
 25 26  2  0
 25 39  1  0
 26 27  1  0
 26 40  1  0
 27 28  2  0
 27 41  1  0
 28 42  1  0
M  CHG  2   3  -1  14  -1
M  END
>  <s_m_entry_id>  (1) 
489

>  <i_f3d_flags>  (1) 
0

>  <r_epik_Ionization_Penalty>  (1) 
  0.0002

>  <r_epik_State_Penalty>  (1) 
  0.0000

>  <i_epik_Tot_Q>  (1) 
-2

>  <s_m_job_name>  (1) 
glide-dock_SP_ptp1b_core_cons

>  <r_lp_tautomer_probability>  (1) 
1

>  <r_i_docking_score>  (1) 
-7.37051631076838

>  <r_i_glide_gscore>  (1) 
-7.37051631076838

>  <r_i_glide_emodel>  (1) 
-97.8952361387332

>  <index_string>  (1) 
14:0:0

$$$$
