31:0:0
     RDKit          3D

 50 54  0  0  1  0  0  0  0  0999 V2000
   32.7419   34.6973   14.3853 F   0  0  0  0  0  0  0  0  0  0  0  0
   33.4626   34.9153   15.5106 C   0  0  0  0  0  0  0  0  0  0  0  0
   34.8619   34.9159   15.4889 C   0  0  0  0  0  0  0  0  0  0  0  0
   35.6097   35.1494   16.6493 C   0  0  0  0  0  0  0  0  0  0  0  0
   36.9603   35.1992   16.5696 F   0  0  0  0  0  0  0  0  0  0  0  0
   34.9533   35.2312   17.8926 C   0  0  0  0  0  0  0  0  0  0  0  0
   33.5414   35.2336   17.9211 C   0  0  0  0  0  0  0  0  0  0  0  0
   32.8171   35.1492   16.7228 C   0  0  0  0  0  0  0  0  0  0  0  0
   35.7089   35.2332   19.0358 O   0  0  0  0  0  0  0  0  0  0  0  0
   35.1824   35.8265   20.1423 C   0  0  0  0  0  0  0  0  0  0  0  0
   35.2708   37.1625   20.2618 C   0  0  0  0  0  0  0  0  0  0  0  0
   34.5668   34.9970   21.1774 C   0  0  0  0  0  0  0  0  0  0  0  0
   34.4223   33.7898   21.0016 O   0  0  0  0  0  0  0  0  0  0  0  0
   34.1638   35.6246   22.3220 N   0  0  0  0  0  0  0  0  0  0  0  0
   33.6213   34.8340   23.4062 C   0  0  0  0  0  0  0  0  0  0  0  0
   32.2724   35.1786   24.0164 C   0  0  0  0  0  0  0  0  0  0  0  0
   32.4175   33.9327   23.1842 C   0  0  0  0  0  0  0  0  0  0  0  0
   34.3023   37.0433   22.5238 C   0  0  0  0  0  0  0  0  0  0  0  0
   34.8117   37.8316   21.4687 C   0  0  0  0  0  0  0  0  0  0  0  0
   33.9557   37.6420   23.6840 N   0  0  0  0  0  0  0  0  0  0  0  0
   34.0575   38.9663   23.7776 C   0  0  0  0  0  0  0  0  0  0  0  0
   34.4948   39.7941   22.8269 N   0  0  0  0  0  0  0  0  0  0  0  0
   34.8757   39.2264   21.6596 C   0  0  0  0  0  0  0  0  0  0  0  0
   33.6767   39.5493   24.9707 N   0  0  0  0  0  0  0  0  0  0  0  0
   33.0921   38.8404   26.1047 C   0  0  0  0  0  0  0  0  0  0  0  0
   33.3363   39.6023   27.4148 C   0  0  0  0  0  0  0  0  0  0  0  0
   32.6634   38.8813   28.5914 C   0  0  0  0  0  0  0  0  0  0  0  0
   31.2715   38.7400   28.3335 O   0  0  0  0  0  0  0  0  0  0  0  0
   30.9911   37.9505   27.1826 C   0  0  0  0  0  0  0  0  0  0  0  0
   31.5792   38.6230   25.9301 C   0  0  0  0  0  0  0  0  0  0  0  0
   35.3524   34.7425   14.5574 H   0  0  0  0  0  0  0  0  0  0  0  0
   32.9859   35.2963   18.8450 H   0  0  0  0  0  0  0  0  0  0  0  0
   31.7405   35.1493   16.7597 H   0  0  0  0  0  0  0  0  0  0  0  0
   35.7353   37.7603   19.4908 H   0  0  0  0  0  0  0  0  0  0  0  0
   34.3645   34.4546   24.1052 H   0  0  0  0  0  0  0  0  0  0  0  0
   32.1634   35.0578   25.0927 H   0  0  0  0  0  0  0  0  0  0  0  0
   31.6947   35.9915   23.5808 H   0  0  0  0  0  0  0  0  0  0  0  0
   31.9385   33.9340   22.2065 H   0  0  0  0  0  0  0  0  0  0  0  0
   32.4119   32.9751   23.7014 H   0  0  0  0  0  0  0  0  0  0  0  0
   35.2543   39.8842   20.8926 H   0  0  0  0  0  0  0  0  0  0  0  0
   33.7565   40.5567   25.0481 H   0  0  0  0  0  0  0  0  0  0  0  0
   33.5767   37.8670   26.1935 H   0  0  0  0  0  0  0  0  0  0  0  0
   34.4061   39.7035   27.6020 H   0  0  0  0  0  0  0  0  0  0  0  0
   32.9333   40.6142   27.3422 H   0  0  0  0  0  0  0  0  0  0  0  0
   33.1161   37.9029   28.7612 H   0  0  0  0  0  0  0  0  0  0  0  0
   32.7941   39.4578   29.5075 H   0  0  0  0  0  0  0  0  0  0  0  0
   31.3939   36.9448   27.3104 H   0  0  0  0  0  0  0  0  0  0  0  0
   29.9105   37.8489   27.0889 H   0  0  0  0  0  0  0  0  0  0  0  0
   31.0791   39.5787   25.7659 H   0  0  0  0  0  0  0  0  0  0  0  0
   31.3781   38.0102   25.0512 H   0  0  0  0  0  0  0  0  0  0  0  0
  1  2  1  0
  2  8  2  0
  2  3  1  0
  3  4  2  0
  3 31  1  0
  4  5  1  0
  4  6  1  0
  6  7  2  0
  6  9  1  0
  7  8  1  0
  7 32  1  0
  8 33  1  0
  9 10  1  0
 10 11  2  0
 10 12  1  0
 11 19  1  0
 11 34  1  0
 12 13  2  0
 12 14  1  0
 14 15  1  0
 14 18  1  0
 15 17  1  0
 15 16  1  0
 15 35  1  0
 16 17  1  0
 16 36  1  0
 16 37  1  0
 17 38  1  0
 17 39  1  0
 18 19  2  0
 18 20  1  0
 19 23  1  0
 20 21  2  0
 21 22  1  0
 21 24  1  0
 22 23  2  0
 23 40  1  0
 24 25  1  0
 24 41  1  0
 25 30  1  0
 25 26  1  0
 25 42  1  0
 26 27  1  0
 26 43  1  0
 26 44  1  0
 27 28  1  0
 27 45  1  0
 27 46  1  0
 28 29  1  0
 29 30  1  0
 29 47  1  0
 29 48  1  0
 30 49  1  0
 30 50  1  0
M  END
>  <s_m_entry_id>  (1) 
270

>  <i_f3d_flags>  (1) 
0

>  <r_lp_tautomer_probability>  (1) 
1

>  <r_epik_Ionization_Penalty>  (1) 
  0.0000

>  <r_epik_State_Penalty>  (1) 
  0.0000

>  <i_epik_Tot_Q>  (1) 
0

>  <s_m_job_name>  (1) 
glide-dock_SP_p38_core_cons_top_1

>  <r_i_docking_score>  (1) 
-6.63611321544688

>  <r_i_glide_gscore>  (1) 
-6.63611321544688

>  <r_i_glide_emodel>  (1) 
-50.4904096004079

>  <index_string>  (1) 
31:0:0

$$$$
