37:0:0
     RDKit          3D

 51 55  0  0  1  0  0  0  0  0999 V2000
    5.5020   -0.6000   16.2560 C   0  0  0  0  0  0  0  0  0  0  0  0
    4.2240   -1.0420   16.1390 N   0  0  0  0  0  0  0  0  0  0  0  0
    3.7200   -0.2940   15.1440 C   0  0  0  0  0  0  0  0  0  0  0  0
    2.4280   -0.3520   14.6280 C   0  0  0  0  0  0  0  0  0  0  0  0
    1.4770   -1.2830   15.1620 N   0  0  0  0  0  0  0  0  0  0  0  0
    2.1120    0.5020   13.6070 N   0  0  0  0  0  0  0  0  0  0  0  0
    3.0200    1.3920   13.0950 C   0  0  0  0  0  0  0  0  0  0  0  0
    4.3190    1.4300   13.6370 C   0  0  0  0  0  0  0  0  0  0  0  0
    4.6040    0.5750   14.6450 N   0  0  0  0  0  0  0  0  0  0  0  0
    5.7460    0.4080   15.3260 C   0  0  0  0  0  0  0  0  0  0  0  0
    2.6330    2.2960   11.9910 C   0  0  0  0  0  0  0  0  0  0  0  0
    3.5870    2.7040   11.0470 C   0  0  0  0  0  0  0  0  0  0  0  0
    3.2350    3.5640   10.0020 C   0  0  0  0  0  0  0  0  0  0  0  0
    1.9220    4.0230    9.8930 C   0  0  0  0  0  0  0  0  0  0  0  0
    0.9550    3.6010   10.8150 C   0  0  0  0  0  0  0  0  0  0  0  0
    1.3080    2.7510   11.8650 C   0  0  0  0  0  0  0  0  0  0  0  0
   -0.3940    4.0460   10.6560 N   0  0  0  0  0  0  0  0  0  0  0  0
   -0.8050    4.7030    9.4180 C   0  0  0  0  0  0  0  0  0  0  0  0
    0.3160    5.6140    8.9150 C   0  0  0  0  0  0  0  0  0  0  0  0
    1.5560    4.9040    8.8710 O   0  0  0  0  0  0  0  0  0  0  0  0
    0.1170   -1.4770   14.7510 C   0  0  0  0  0  0  0  0  0  0  0  0
   -0.5000   -2.6960   15.0400 C   0  0  0  0  0  0  0  0  0  0  0  0
   -1.8230   -2.9280   14.6600 C   0  0  0  0  0  0  0  0  0  0  0  0
   -2.5510   -1.9400   13.9800 C   0  0  0  0  0  0  0  0  0  0  0  0
   -1.9400   -0.7110   13.6840 C   0  0  0  0  0  0  0  0  0  0  0  0
   -0.6080   -0.4870   14.0720 C   0  0  0  0  0  0  0  0  0  0  0  0
   -3.8780   -2.1540   13.5900 O   0  0  0  0  0  0  0  0  0  0  0  0
   -4.2710   -3.2510   12.7750 C   0  0  0  0  0  0  0  0  0  0  0  0
   -2.6750    0.2680   13.0060 O   0  0  0  0  0  0  0  0  0  0  0  0
   -2.0650    1.3230   12.2790 C   0  0  0  0  0  0  0  0  0  0  0  0
    6.2374   -0.9819   16.9794 H   0  0  0  0  0  0  0  0  0  0  0  0
    1.8097   -1.8825   15.9307 H   0  0  0  0  0  0  0  0  0  0  0  0
    5.0754    2.1307   13.2538 H   0  0  0  0  0  0  0  0  0  0  0  0
    6.6878    0.9571   15.1798 H   0  0  0  0  0  0  0  0  0  0  0  0
    4.6230    2.3436   11.1296 H   0  0  0  0  0  0  0  0  0  0  0  0
    3.9915    3.8778    9.2677 H   0  0  0  0  0  0  0  0  0  0  0  0
    0.5481    2.4364   12.5954 H   0  0  0  0  0  0  0  0  0  0  0  0
   -1.0762    3.9034   11.4144 H   0  0  0  0  0  0  0  0  0  0  0  0
   -1.0249    3.9406    8.6561 H   0  0  0  0  0  0  0  0  0  0  0  0
   -1.7040    5.3072    9.6099 H   0  0  0  0  0  0  0  0  0  0  0  0
    0.0669    5.9705    7.9046 H   0  0  0  0  0  0  0  0  0  0  0  0
    0.4180    6.4660    9.6032 H   0  0  0  0  0  0  0  0  0  0  0  0
    0.0608   -3.4793   15.5711 H   0  0  0  0  0  0  0  0  0  0  0  0
   -2.2980   -3.8919   14.8953 H   0  0  0  0  0  0  0  0  0  0  0  0
   -0.1287    0.4756   13.8405 H   0  0  0  0  0  0  0  0  0  0  0  0
   -4.5728   -4.0934   13.4147 H   0  0  0  0  0  0  0  0  0  0  0  0
   -5.1176   -2.9512   12.1399 H   0  0  0  0  0  0  0  0  0  0  0  0
   -3.4266   -3.5570   12.1399 H   0  0  0  0  0  0  0  0  0  0  0  0
   -1.6414    2.0556   12.9818 H   0  0  0  0  0  0  0  0  0  0  0  0
   -1.2628    0.9161   11.6458 H   0  0  0  0  0  0  0  0  0  0  0  0
   -2.8179    1.8152   11.6458 H   0  0  0  0  0  0  0  0  0  0  0  0
  1  2  1  0
  1 10  2  0
  2  3  2  0
  3  4  1  0
  3  9  1  0
  4  5  1  0
  4  6  2  0
  5 21  1  0
  6  7  1  0
  7  8  2  0
  7 11  1  0
  8  9  1  0
  9 10  1  0
 11 12  2  0
 11 16  1  0
 12 13  1  0
 13 14  2  0
 14 15  1  0
 14 20  1  0
 15 16  2  0
 15 17  1  0
 17 18  1  0
 18 19  1  0
 19 20  1  0
 21 22  2  0
 21 26  1  0
 22 23  1  0
 23 24  2  0
 24 25  1  0
 24 27  1  0
 25 26  2  0
 25 29  1  0
 27 28  1  0
 29 30  1  0
  1 31  1  0
  5 32  1  0
  8 33  1  0
 10 34  1  0
 12 35  1  0
 13 36  1  0
 16 37  1  0
 17 38  1  0
 18 39  1  0
 18 40  1  0
 19 41  1  0
 19 42  1  0
 22 43  1  0
 23 44  1  0
 26 45  1  0
 28 46  1  0
 28 47  1  0
 28 48  1  0
 30 49  1  0
 30 50  1  0
 30 51  1  0
M  END
>  <s_m_entry_id>  (1) 
1071

>  <MODEL>  (1) 
1

>  <REMARK>  (1) 
 VINA RESULT:   -10.943      0.000      0.000
 INTER + INTRA:         -12.281
 INTER:                 -11.809
 INTRA:                  -0.471
 UNBOUND:                 1.222
  Name = /scratch/kmzp800/tmpa1tdqmql/tmpde6nyvjg.pdb
  6 active torsions:
  status: ('A' for Active; 'I' for Inactive)
    1  A    between atoms: N2_5  and  C4_6
    2  A    between atoms: C7_9  and  O1_10
    3  A    between atoms: O1_10  and  C8_11
    4  A    between atoms: C9_12  and  O2_13
    5  A    between atoms: O2_13  and  C10_14
    6  A    between atoms: C12_17  and  C13_18
                            x       y       z     vdW  Elec       q    Type
                         _______ _______ _______ _____ _____    ______ ____

>  <TORSDO>  (1) 
F 4

>  <grid_id>  (1) 
syk-prepared

>  <grid_path>  (1) 
syk_vina.pdbqt

>  <grid_filename>  (1) 
syk_vina.pdbqt

>  <docking_score>  (1) 
-10.943

>  <compound_name>  (1) 
CHEMBL3265026

>  <index_string>  (1) 
37:0:0

>  <s_m_Source_Path>  (1) 
/projects/mai/users/kmzp800_harry/pmx_colab/docking_jobs/syk/vina_prep/output

>  <s_m_Source_File>  (1) 
ptp1b_docked_conformers.sdf

>  <i_m_Source_File_Index>  (1) 
895

$$$$
