16:0:0
     RDKit          3D

 44 46  0  0  1  0  0  0  0  0999 V2000
   34.5310   35.0903   21.3192 C   0  0  0  0  0  0  0  0  0  0  0  0
   34.0977   38.9856   24.0154 C   0  0  0  0  0  0  0  0  0  0  0  0
   34.8664   37.8986   21.6859 C   0  0  0  0  0  0  0  0  0  0  0  0
   35.2395   37.2649   20.4261 C   0  0  0  0  0  0  0  0  0  0  0  0
   34.3704   37.0931   22.7310 C   0  0  0  0  0  0  0  0  0  0  0  0
   34.9419   39.2842   21.9198 C   0  0  0  0  0  0  0  0  0  0  0  0
   35.0860   35.9340   20.2593 C   0  0  0  0  0  0  0  0  0  0  0  0
   33.8057   34.8631   23.6498 C   0  0  0  0  0  0  0  0  0  0  0  0
   34.5521   39.8324   23.0912 N   0  0  0  0  0  0  0  0  0  0  0  0
   34.3056   33.8985   21.1186 O   0  0  0  0  0  0  0  0  0  0  0  0
   34.2696   35.6827   22.5183 N   0  0  0  0  0  0  0  0  0  0  0  0
   33.9886   37.6654   23.8920 N   0  0  0  0  0  0  0  0  0  0  0  0
   33.6921   39.5493   25.2048 N   0  0  0  0  0  0  0  0  0  0  0  0
   35.6134   37.8996   19.6353 H   0  0  0  0  0  0  0  0  0  0  0  0
   35.3139   39.9493   21.1572 H   0  0  0  0  0  0  0  0  0  0  0  0
   33.8936   33.7846   23.4999 H   0  0  0  0  0  0  0  0  0  0  0  0
   34.3846   35.0961   24.5456 H   0  0  0  0  0  0  0  0  0  0  0  0
   32.7575   35.0820   23.8613 H   0  0  0  0  0  0  0  0  0  0  0  0
   33.7623   40.5576   25.2842 H   0  0  0  0  0  0  0  0  0  0  0  0
   33.2466   38.8058   26.3745 C   0  0  0  0  0  0  0  0  0  0  0  0
   33.6935   37.8107   26.4011 H   0  0  0  0  0  0  0  0  0  0  0  0
   32.1692   38.6617   26.2849 H   0  0  0  0  0  0  0  0  0  0  0  0
   33.5608   39.5448   27.6842 C   0  0  0  0  0  0  0  0  0  0  0  0
   33.0131   39.0741   28.5006 H   0  0  0  0  0  0  0  0  0  0  0  0
   33.2428   40.5877   27.6544 H   0  0  0  0  0  0  0  0  0  0  0  0
   35.3530   39.4563   28.1343 S   0  0  0  0  0  0  0  0  0  0  0  0
   36.0948   38.7492   27.0798 O   0  0  0  0  0  0  0  0  0  0  0  0
   35.8514   41.2219   28.0987 C   0  0  0  0  0  0  0  0  0  0  0  0
   35.4541   39.0001   29.5279 O   0  0  0  0  0  0  0  0  0  0  0  0
   36.8917   41.3032   28.4080 H   0  0  0  0  0  0  0  0  0  0  0  0
   35.2224   41.7918   28.7810 H   0  0  0  0  0  0  0  0  0  0  0  0
   35.7446   41.6124   27.0891 H   0  0  0  0  0  0  0  0  0  0  0  0
   35.3480   35.2830   19.0801 O   0  0  0  0  0  0  0  0  0  0  0  0
   37.9101   36.6020   16.0505 C   0  0  0  0  0  0  0  0  0  0  0  0
   38.4464   36.3493   17.3312 C   0  0  0  0  0  0  0  0  0  0  0  0
   37.5836   36.0284   18.4004 C   0  0  0  0  0  0  0  0  0  0  0  0
   36.2160   35.7782   18.1432 C   0  0  0  0  0  0  0  0  0  0  0  0
   35.7516   35.8526   16.8241 C   0  0  0  0  0  0  0  0  0  0  0  0
   36.5594   36.3481   15.7948 C   0  0  0  0  0  0  0  0  0  0  0  0
   38.6602   37.1493   15.0768 F   0  0  0  0  0  0  0  0  0  0  0  0
   39.4909   36.5486   17.5209 H   0  0  0  0  0  0  0  0  0  0  0  0
   38.0763   35.9492   19.6555 F   0  0  0  0  0  0  0  0  0  0  0  0
   34.7304   35.5654   16.6112 H   0  0  0  0  0  0  0  0  0  0  0  0
   36.1488   36.5230   14.8125 H   0  0  0  0  0  0  0  0  0  0  0  0
  1  7  1  0
  1 10  2  0
  1 11  1  0
  2  9  1  0
  2 12  2  0
  2 13  1  0
  3  4  1  0
  3  5  2  0
  3  6  1  0
  4  7  2  0
  4 14  1  0
  5 11  1  0
  5 12  1  0
  6  9  2  0
  6 15  1  0
  7 33  1  0
  8 11  1  0
  8 16  1  0
  8 17  1  0
  8 18  1  0
 13 19  1  0
 13 20  1  0
 20 21  1  0
 20 22  1  0
 20 23  1  0
 23 24  1  0
 23 25  1  0
 23 26  1  0
 26 27  2  0
 26 28  1  0
 26 29  2  0
 28 30  1  0
 28 31  1  0
 28 32  1  0
 33 37  1  0
 34 35  2  0
 34 39  1  0
 34 40  1  0
 35 36  1  0
 35 41  1  0
 36 37  2  0
 36 42  1  0
 37 38  1  0
 38 39  2  0
 38 43  1  0
 39 44  1  0
M  END
>  <s_m_entry_id>  (1) 
834

>  <s_m_Source_Path>  (1) 
/projects/mai/users/kmzp800_harry/pmx_colab/docking_jobs/p38/glide-dock_SP_p38_mcs_docking_2

>  <s_m_Source_File>  (1) 
glide-dock_SP_p38_mcs_docking_2_pv.maegz

>  <i_m_Source_File_Index>  (1) 
18

>  <s_pdb_PDB_TITLE>  (1) 
MX MODEL

>  <r_i_docking_score>  (1) 
-7.23401598598557

>  <r_i_glide_gscore>  (1) 
-7.23401598598557

>  <r_i_glide_emodel>  (1) 
-53.3214905781069

>  <index_string>  (1) 
16:0:0

$$$$
