20:0:0
     RDKit          3D

 45 47  0  0  1  0  0  0  0  0999 V2000
   42.3710    8.8570   16.9890 C   0  0  0  0  0  0  0  0  0  0  0  0
   42.7800   10.1880   16.8910 C   0  0  0  0  0  0  0  0  0  0  0  0
   42.0610   11.1010   16.1070 C   0  0  0  0  0  0  0  0  0  0  0  0
   40.9120   10.6570   15.4370 C   0  0  0  0  0  0  0  0  0  0  0  0
   40.4930    9.3220   15.5330 C   0  0  0  0  0  0  0  0  0  0  0  0
   41.2290    8.4240   16.3100 C   0  0  0  0  0  0  0  0  0  0  0  0
   42.4600   12.5250   16.0080 C   0  0  0  0  0  0  0  0  0  0  0  0
   43.4210   13.3010   17.1550 S   0  0  0  0  0  0  0  0  0  0  0  0
   43.4450   14.8060   16.4190 C   0  0  0  0  0  0  0  0  0  0  0  0
   42.7030   14.7370   15.2420 C   0  0  0  0  0  0  0  0  0  0  0  0
   42.1290   13.4590   15.0120 C   0  0  0  0  0  0  0  0  0  0  0  0
   40.8720   13.1020   13.5990 Br  0  0  0  0  0  0  0  0  0  0  0  0
   44.1570   15.9820   16.9420 C   0  0  0  0  0  0  0  0  0  0  0  0
   44.9730   16.6010   16.2090 O   0  0  0  0  0  0  0  0  0  0  0  0
   43.9390   16.4230   18.2410 O   0  0  0  0  0  0  0  0  0  0  0  0
   42.5550   15.8580   14.4140 O   0  0  0  0  0  0  0  0  0  0  0  0
   41.4590   16.7610   14.4760 C   0  0  0  0  0  0  0  0  0  0  0  0
   41.0360   17.1490   13.1010 C   0  0  0  0  0  0  0  0  0  0  0  0
   41.1550   16.3300   12.1530 O   0  0  0  0  0  0  0  0  0  0  0  0
   40.4710   18.3960   12.8730 O   0  0  0  0  0  0  0  0  0  0  0  0
   39.3260    8.8590   14.8460 N   0  0  0  0  0  0  0  0  0  0  0  0
   38.9740    7.4520   14.7140 C   0  0  0  0  0  0  0  0  0  0  0  0
   37.5080    7.2460   15.1230 C   0  0  0  0  0  0  0  0  0  0  0  0
   36.5780    7.2540   13.9120 C   0  0  0  0  0  0  0  0  0  0  0  0
   36.9270    6.1220   12.9350 C   0  0  0  0  0  0  0  0  0  0  0  0
   38.4200    5.7660   12.9160 C   0  0  0  0  0  0  0  0  0  0  0  0
   39.2830    6.9670   13.2870 C   0  0  0  0  0  0  0  0  0  0  0  0
   42.9481    8.1484   17.6012 H   0  0  0  0  0  0  0  0  0  0  0  0
   43.6755   10.5238   17.4344 H   0  0  0  0  0  0  0  0  0  0  0  0
   40.3314   11.3654   14.8278 H   0  0  0  0  0  0  0  0  0  0  0  0
   40.9090    7.3744   16.3874 H   0  0  0  0  0  0  0  0  0  0  0  0
   40.6172   16.2764   14.9923 H   0  0  0  0  0  0  0  0  0  0  0  0
   41.7665   17.6628   15.0257 H   0  0  0  0  0  0  0  0  0  0  0  0
   38.7009    9.5591   14.4217 H   0  0  0  0  0  0  0  0  0  0  0  0
   39.5832    6.8372   15.3929 H   0  0  0  0  0  0  0  0  0  0  0  0
   37.4141    6.2787   15.6383 H   0  0  0  0  0  0  0  0  0  0  0  0
   37.2167    8.0749   15.7849 H   0  0  0  0  0  0  0  0  0  0  0  0
   35.5410    7.1244   14.2553 H   0  0  0  0  0  0  0  0  0  0  0  0
   36.6967    8.2142   13.3886 H   0  0  0  0  0  0  0  0  0  0  0  0
   36.3592    5.2254   13.2243 H   0  0  0  0  0  0  0  0  0  0  0  0
   36.6663    6.4744   11.9261 H   0  0  0  0  0  0  0  0  0  0  0  0
   38.6041    4.9564   13.6376 H   0  0  0  0  0  0  0  0  0  0  0  0
   38.6874    5.4490   11.8972 H   0  0  0  0  0  0  0  0  0  0  0  0
   39.0840    7.7848   12.5787 H   0  0  0  0  0  0  0  0  0  0  0  0
   40.3397    6.6648   13.2421 H   0  0  0  0  0  0  0  0  0  0  0  0
  1  2  2  0
  1  6  1  0
  1 28  1  0
  2  3  1  0
  2 29  1  0
  3  4  2  0
  3  7  1  0
  4  5  1  0
  4 30  1  0
  5  6  2  0
  5 21  1  0
  6 31  1  0
  7  8  1  0
  7 11  2  0
  8  9  1  0
  9 13  1  0
  9 10  2  0
 10 11  1  0
 10 16  1  0
 11 12  1  0
 13 15  1  0
 13 14  2  0
 16 17  1  0
 17 18  1  0
 17 32  1  0
 17 33  1  0
 18 19  2  0
 18 20  1  0
 21 22  1  0
 21 34  1  0
 22 23  1  0
 22 27  1  0
 22 35  1  0
 23 24  1  0
 23 36  1  0
 23 37  1  0
 24 25  1  0
 24 38  1  0
 24 39  1  0
 25 26  1  0
 25 40  1  0
 25 41  1  0
 26 27  1  0
 26 42  1  0
 26 43  1  0
 27 44  1  0
 27 45  1  0
M  CHG  2  15  -1  20  -1
M  END
>  <s_m_entry_id>  (1) 
1238

>  <MODEL>  (1) 
2

>  <REMARK>  (1) 
 VINA RESULT:    -6.872      4.498      7.740
 INTER + INTRA:         -10.778
 INTER:                 -10.451
 INTRA:                  -0.327
 UNBOUND:                -1.093
  Name = /scratch/kmzp800/tmp5lrenckb/tmpbu422txn.pdb
  7 active torsions:
  status: ('A' for Active; 'I' for Inactive)
    1  A    between atoms: C3_3  and  C4_4
    2  A    between atoms: C5_6  and  C6_7
    3  A    between atoms: C7_10  and  O3_11
    4  A    between atoms: O3_11  and  C8_12
    5  A    between atoms: C8_12  and  C9_13
    6  A    between atoms: C12_19  and  N1_20
    7  A    between atoms: N1_20  and  C13_21
                            x       y       z     vdW  Elec       q    Type
                         _______ _______ _______ _____ _____    ______ ____

>  <TORSDO>  (1) 
F 7

>  <grid_id>  (1) 
ptp1b-prepared

>  <grid_path>  (1) 
ptp1b_vina.pdbqt

>  <grid_filename>  (1) 
ptp1b_vina.pdbqt

>  <docking_score>  (1) 
-6.872

>  <compound_name>  (1) 
lig_20670_2qbs

>  <index_string>  (1) 
20:0:0

>  <s_m_Source_Path>  (1) 
/projects/mai/users/kmzp800_harry/pmx_colab/docking_jobs/ptp1b

>  <s_m_Source_File>  (1) 
ptp1b_confs_vina_mcs.sdf

>  <i_m_Source_File_Index>  (1) 
22

$$$$
