5:0:0
     RDKit          3D

 39 41  0  0  1  0  0  0  0  0999 V2000
  -14.4083  -15.0441  -27.7736 C   0  0  0  0  0  0  0  0  0  0  0  0
  -14.9901  -15.7890  -26.7314 C   0  0  0  0  0  0  0  0  0  0  0  0
  -14.4494  -13.6415  -27.7462 C   0  0  0  0  0  0  0  0  0  0  0  0
  -15.6499  -15.1345  -25.6660 C   0  0  0  0  0  0  0  0  0  0  0  0
  -14.8470  -17.1762  -26.7397 N   0  0  0  0  0  0  0  0  0  0  0  0
  -15.1339  -12.9858  -26.7078 C   0  0  0  0  0  0  0  0  0  0  0  0
  -15.7373  -13.7232  -25.6619 C   0  0  0  0  0  0  0  0  0  0  0  0
  -16.2172  -16.0011  -24.5720 C   0  0  0  0  0  0  0  0  0  0  0  0
  -15.9809  -17.3134  -24.6954 N   0  0  0  0  0  0  0  0  0  0  0  0
  -16.8487  -15.5670  -23.6184 O   0  0  0  0  0  0  0  0  0  0  0  0
  -15.2926  -17.9021  -25.7575 C   0  0  0  0  0  0  0  0  0  0  0  0
  -15.1020  -19.3704  -25.8088 C   0  0  0  0  0  0  0  0  0  0  0  0
  -15.1537  -20.1674  -24.6466 C   0  0  0  0  0  0  0  0  0  0  0  0
  -14.9174  -21.5515  -24.7364 C   0  0  0  0  0  0  0  0  0  0  0  0
  -14.6361  -22.1549  -25.9854 C   0  0  0  0  0  0  0  0  0  0  0  0
  -14.6339  -21.3491  -27.1377 C   0  0  0  0  0  0  0  0  0  0  0  0
  -14.8482  -19.9738  -27.0530 C   0  0  0  0  0  0  0  0  0  0  0  0
  -15.2093  -11.6383  -26.7387 F   0  0  0  0  0  0  0  0  0  0  0  0
  -14.3426  -23.6522  -26.0725 C   0  0  0  0  0  0  0  0  0  0  0  0
  -13.1897  -23.9727  -25.0951 C   0  0  0  0  0  0  0  0  0  0  0  0
  -13.9008  -24.1236  -27.4759 C   0  0  0  0  0  0  0  0  0  0  0  0
  -15.6488  -24.3918  -25.7364 C   0  0  0  0  0  0  0  0  0  0  0  0
  -13.8953  -15.5491  -28.5796 H   0  0  0  0  0  0  0  0  0  0  0  0
  -13.9874  -13.0620  -28.5328 H   0  0  0  0  0  0  0  0  0  0  0  0
  -16.2528  -13.2077  -24.8629 H   0  0  0  0  0  0  0  0  0  0  0  0
  -16.3827  -17.9173  -23.9918 H   0  0  0  0  0  0  0  0  0  0  0  0
  -15.3608  -19.7321  -23.6809 H   0  0  0  0  0  0  0  0  0  0  0  0
  -14.9474  -22.1463  -23.8366 H   0  0  0  0  0  0  0  0  0  0  0  0
  -14.4483  -21.7415  -28.1127 H   0  0  0  0  0  0  0  0  0  0  0  0
  -14.8337  -19.3969  -27.9664 H   0  0  0  0  0  0  0  0  0  0  0  0
  -12.7169  -24.9289  -25.3082 H   0  0  0  0  0  0  0  0  0  0  0  0
  -13.5090  -23.9714  -24.0529 H   0  0  0  0  0  0  0  0  0  0  0  0
  -12.3990  -23.2285  -25.1909 H   0  0  0  0  0  0  0  0  0  0  0  0
  -14.6906  -23.9730  -28.2123 H   0  0  0  0  0  0  0  0  0  0  0  0
  -13.0017  -23.6050  -27.8114 H   0  0  0  0  0  0  0  0  0  0  0  0
  -13.6733  -25.1898  -27.4784 H   0  0  0  0  0  0  0  0  0  0  0  0
  -16.4685  -24.0171  -26.3509 H   0  0  0  0  0  0  0  0  0  0  0  0
  -15.5823  -25.4605  -25.9387 H   0  0  0  0  0  0  0  0  0  0  0  0
  -15.9392  -24.2620  -24.6947 H   0  0  0  0  0  0  0  0  0  0  0  0
  1  2  2  0
  1  3  1  0
  1 23  1  0
  2  4  1  0
  2  5  1  0
  3  6  2  0
  3 24  1  0
  4  7  2  0
  4  8  1  0
  5 11  2  0
  6  7  1  0
  6 18  1  0
  7 25  1  0
  8  9  1  0
  8 10  2  0
  9 11  1  0
  9 26  1  0
 11 12  1  0
 12 13  2  0
 12 17  1  0
 13 14  1  0
 13 27  1  0
 14 15  2  0
 14 28  1  0
 15 16  1  0
 15 19  1  0
 16 17  2  0
 16 29  1  0
 17 30  1  0
 19 20  1  0
 19 21  1  0
 19 22  1  0
 20 31  1  0
 20 32  1  0
 20 33  1  0
 21 34  1  0
 21 35  1  0
 21 36  1  0
 22 37  1  0
 22 38  1  0
 22 39  1  0
M  END
>  <s_m_entry_id>  (1) 
420

>  <Name>  (1) 
3b

>  <IC50[nM]>  (1) 
3.6

>  <s_m_Source_Path>  (1) 
/projects/mai/users/kmzp800_harry/pmx_colab/docking_jobs/tnks2

>  <s_m_Source_File>  (1) 
tnks2_lig.sdf

>  <i_m_Source_File_Index>  (1) 
6

>  <s_m_job_name>  (1) 
glide-dock_SP_tnks2_no_cons

>  <r_i_docking_score>  (1) 
-10.6071296171401

>  <r_i_glide_gscore>  (1) 
-10.6071296171401

>  <r_i_glide_emodel>  (1) 
-58.442551697701

>  <index_string>  (1) 
5:0:0

$$$$
