8:0:0
     RDKit          3D

 27 29  0  0  1  0  0  0  0  0999 V2000
  -15.2010  -19.2539  -25.9337 C   0  0  0  0  0  0  0  0  0  0  0  0
  -14.7805  -19.8427  -27.1386 C   0  0  0  0  0  0  0  0  0  0  0  0
  -15.4531  -20.0861  -24.8172 C   0  0  0  0  0  0  0  0  0  0  0  0
  -14.5561  -21.2217  -27.2108 C   0  0  0  0  0  0  0  0  0  0  0  0
  -15.2482  -21.4782  -24.9039 C   0  0  0  0  0  0  0  0  0  0  0  0
  -14.8482  -16.9901  -26.7617 N   0  0  0  0  0  0  0  0  0  0  0  0
  -14.7872  -22.0510  -26.1024 C   0  0  0  0  0  0  0  0  0  0  0  0
  -15.0380  -15.5999  -26.6885 C   0  0  0  0  0  0  0  0  0  0  0  0
  -15.7571  -15.0157  -25.6200 C   0  0  0  0  0  0  0  0  0  0  0  0
  -15.2479  -12.7917  -26.4817 C   0  0  0  0  0  0  0  0  0  0  0  0
  -14.5269  -13.3694  -27.5422 C   0  0  0  0  0  0  0  0  0  0  0  0
  -15.8760  -13.6116  -25.5230 C   0  0  0  0  0  0  0  0  0  0  0  0
  -14.4482  -14.7699  -27.6622 C   0  0  0  0  0  0  0  0  0  0  0  0
  -16.3622  -15.9457  -24.6115 C   0  0  0  0  0  0  0  0  0  0  0  0
  -16.1170  -17.2423  -24.8115 N   0  0  0  0  0  0  0  0  0  0  0  0
  -15.3614  -17.7743  -25.8541 C   0  0  0  0  0  0  0  0  0  0  0  0
  -17.0344  -15.5727  -23.6615 O   0  0  0  0  0  0  0  0  0  0  0  0
  -14.5638  -19.2417  -28.0099 H   0  0  0  0  0  0  0  0  0  0  0  0
  -15.7995  -19.6722  -23.8829 H   0  0  0  0  0  0  0  0  0  0  0  0
  -14.1758  -21.5991  -28.1369 H   0  0  0  0  0  0  0  0  0  0  0  0
  -15.4326  -22.1052  -24.0446 H   0  0  0  0  0  0  0  0  0  0  0  0
  -14.0508  -12.7354  -28.2780 H   0  0  0  0  0  0  0  0  0  0  0  0
  -16.4313  -13.1595  -24.7130 H   0  0  0  0  0  0  0  0  0  0  0  0
  -16.5577  -17.8876  -24.1672 H   0  0  0  0  0  0  0  0  0  0  0  0
  -13.9018  -15.2086  -28.4838 H   0  0  0  0  0  0  0  0  0  0  0  0
  -15.3164  -11.7166  -26.4182 H   0  0  0  0  0  0  0  0  0  0  0  0
  -14.6071  -23.1143  -26.1720 H   0  0  0  0  0  0  0  0  0  0  0  0
  1  2  2  0
  1  3  1  0
  1 16  1  0
  2  4  1  0
  2 18  1  0
  3  5  2  0
  3 19  1  0
  4  7  2  0
  4 20  1  0
  5  7  1  0
  5 21  1  0
  6  8  1  0
  6 16  2  0
  7 27  1  0
  8  9  2  0
  8 13  1  0
  9 12  1  0
  9 14  1  0
 10 11  1  0
 10 12  2  0
 10 26  1  0
 11 13  2  0
 11 22  1  0
 12 23  1  0
 13 25  1  0
 14 15  1  0
 14 17  2  0
 15 16  1  0
 15 24  1  0
M  END
>  <s_m_entry_id>  (1) 
450

>  <Name>  (1) 
1a

>  <IC50[nM]>  (1) 
540

>  <s_m_Source_Path>  (1) 
/projects/mai/users/kmzp800_harry/pmx_colab/docking_jobs/tnks2

>  <s_m_Source_File>  (1) 
tnks2_lig.sdf

>  <i_m_Source_File_Index>  (1) 
9

>  <s_m_job_name>  (1) 
glide-dock_SP_tnks2_core_const

>  <r_i_docking_score>  (1) 
-10.0226077008914

>  <r_i_glide_gscore>  (1) 
-10.0226077008914

>  <r_i_glide_emodel>  (1) 
-55.9222934226107

>  <index_string>  (1) 
8:0:0

$$$$
