28:0:0
     RDKit          3D

 55 58  0  0  1  0  0  0  0  0999 V2000
   32.7351   34.6700   14.3908 F   0  0  0  0  0  0  0  0  0  0  0  0
   33.4590   34.9020   15.5105 C   0  0  0  0  0  0  0  0  0  0  0  0
   34.8577   34.9120   15.4889 C   0  0  0  0  0  0  0  0  0  0  0  0
   35.6107   35.1533   16.6484 C   0  0  0  0  0  0  0  0  0  0  0  0
   36.9608   35.1981   16.5675 F   0  0  0  0  0  0  0  0  0  0  0  0
   34.9532   35.2463   17.8894 C   0  0  0  0  0  0  0  0  0  0  0  0
   33.5415   35.2485   17.9180 C   0  0  0  0  0  0  0  0  0  0  0  0
   32.8127   35.1493   16.7256 C   0  0  0  0  0  0  0  0  0  0  0  0
   35.7158   35.2532   19.0283 O   0  0  0  0  0  0  0  0  0  0  0  0
   35.1851   35.8270   20.1361 C   0  0  0  0  0  0  0  0  0  0  0  0
   35.2596   37.1639   20.2640 C   0  0  0  0  0  0  0  0  0  0  0  0
   34.5955   34.9883   21.1781 C   0  0  0  0  0  0  0  0  0  0  0  0
   34.5519   33.7745   21.0245 O   0  0  0  0  0  0  0  0  0  0  0  0
   34.1734   35.6134   22.3203 N   0  0  0  0  0  0  0  0  0  0  0  0
   33.6205   34.7978   23.4208 C   0  0  0  0  0  0  0  0  0  0  0  0
   32.0818   34.6912   23.3793 C   0  0  0  0  0  0  0  0  0  0  0  0
   31.4995   33.6249   21.9906 S   0  0  0  0  0  0  0  0  0  0  0  0
   31.7518   34.3484   20.7368 O   0  0  0  0  0  0  0  0  0  0  0  0
   32.0420   32.2775   22.1807 O   0  0  0  0  0  0  0  0  0  0  0  0
   29.7084   33.5492   22.2568 C   0  0  0  0  0  0  0  0  0  0  0  0
   34.2726   37.0376   22.5144 C   0  0  0  0  0  0  0  0  0  0  0  0
   34.7909   37.8260   21.4710 C   0  0  0  0  0  0  0  0  0  0  0  0
   33.8887   37.6364   23.6631 N   0  0  0  0  0  0  0  0  0  0  0  0
   34.0052   38.9633   23.7621 C   0  0  0  0  0  0  0  0  0  0  0  0
   34.4647   39.7896   22.8276 N   0  0  0  0  0  0  0  0  0  0  0  0
   34.8511   39.2233   21.6678 C   0  0  0  0  0  0  0  0  0  0  0  0
   33.5824   39.5494   24.9370 N   0  0  0  0  0  0  0  0  0  0  0  0
   33.0040   38.8480   26.0782 C   0  0  0  0  0  0  0  0  0  0  0  0
   32.9367   39.7676   27.3091 C   0  0  0  0  0  0  0  0  0  0  0  0
   32.2882   39.0364   28.4975 C   0  0  0  0  0  0  0  0  0  0  0  0
   30.9992   38.5537   28.1332 O   0  0  0  0  0  0  0  0  0  0  0  0
   31.0320   37.6250   27.0531 C   0  0  0  0  0  0  0  0  0  0  0  0
   31.5911   38.3083   25.7943 C   0  0  0  0  0  0  0  0  0  0  0  0
   35.3518   34.7354   14.5591 H   0  0  0  0  0  0  0  0  0  0  0  0
   32.9927   35.3195   18.8455 H   0  0  0  0  0  0  0  0  0  0  0  0
   31.7360   35.1493   16.7655 H   0  0  0  0  0  0  0  0  0  0  0  0
   35.7199   37.7730   19.4984 H   0  0  0  0  0  0  0  0  0  0  0  0
   34.0567   33.7984   23.4363 H   0  0  0  0  0  0  0  0  0  0  0  0
   33.9251   35.2154   24.3783 H   0  0  0  0  0  0  0  0  0  0  0  0
   31.7263   34.2368   24.3030 H   0  0  0  0  0  0  0  0  0  0  0  0
   31.6088   35.6670   23.2921 H   0  0  0  0  0  0  0  0  0  0  0  0
   29.2544   33.0147   21.4215 H   0  0  0  0  0  0  0  0  0  0  0  0
   29.4875   33.0415   23.1909 H   0  0  0  0  0  0  0  0  0  0  0  0
   29.3519   34.5673   22.2896 H   0  0  0  0  0  0  0  0  0  0  0  0
   35.2573   39.8756   20.9102 H   0  0  0  0  0  0  0  0  0  0  0  0
   33.7366   40.5474   25.0329 H   0  0  0  0  0  0  0  0  0  0  0  0
   33.6567   38.0077   26.3157 H   0  0  0  0  0  0  0  0  0  0  0  0
   33.9349   40.1036   27.5915 H   0  0  0  0  0  0  0  0  0  0  0  0
   32.3629   40.6632   27.0745 H   0  0  0  0  0  0  0  0  0  0  0  0
   32.9162   38.2073   28.8261 H   0  0  0  0  0  0  0  0  0  0  0  0
   32.1806   39.7155   29.3435 H   0  0  0  0  0  0  0  0  0  0  0  0
   31.6302   36.7519   27.3172 H   0  0  0  0  0  0  0  0  0  0  0  0
   30.0209   37.2617   26.8770 H   0  0  0  0  0  0  0  0  0  0  0  0
   30.9298   39.1222   25.4888 H   0  0  0  0  0  0  0  0  0  0  0  0
   31.5988   37.5890   24.9761 H   0  0  0  0  0  0  0  0  0  0  0  0
  1  2  1  0
  2  8  2  0
  2  3  1  0
  3  4  2  0
  3 34  1  0
  4  5  1  0
  4  6  1  0
  6  7  2  0
  6  9  1  0
  7  8  1  0
  7 35  1  0
  8 36  1  0
  9 10  1  0
 10 11  2  0
 10 12  1  0
 11 22  1  0
 11 37  1  0
 12 13  2  0
 12 14  1  0
 14 15  1  0
 14 21  1  0
 15 16  1  0
 15 38  1  0
 15 39  1  0
 16 17  1  0
 16 40  1  0
 16 41  1  0
 17 18  2  0
 17 19  2  0
 17 20  1  0
 20 42  1  0
 20 43  1  0
 20 44  1  0
 21 22  2  0
 21 23  1  0
 22 26  1  0
 23 24  2  0
 24 25  1  0
 24 27  1  0
 25 26  2  0
 26 45  1  0
 27 28  1  0
 27 46  1  0
 28 33  1  0
 28 29  1  0
 28 47  1  0
 29 30  1  0
 29 48  1  0
 29 49  1  0
 30 31  1  0
 30 50  1  0
 30 51  1  0
 31 32  1  0
 32 33  1  0
 32 52  1  0
 32 53  1  0
 33 54  1  0
 33 55  1  0
M  END
>  <s_m_entry_id>  (1) 
259

>  <i_f3d_flags>  (1) 
0

>  <r_lp_tautomer_probability>  (1) 
1

>  <r_epik_Ionization_Penalty>  (1) 
  0.0000

>  <r_epik_State_Penalty>  (1) 
  0.0000

>  <i_epik_Tot_Q>  (1) 
0

>  <s_m_job_name>  (1) 
glide-dock_SP_p38_core_cons_top_1

>  <r_i_docking_score>  (1) 
-6.87213159722328

>  <r_i_glide_gscore>  (1) 
-6.87213159722328

>  <r_i_glide_emodel>  (1) 
-42.2166422766732

>  <index_string>  (1) 
28:0:0

$$$$
