26:0:0
     RDKit          3D

 61 65  0  0  1  0  0  0  0  0999 V2000
    5.8300   -0.5150   16.3580 C   0  0  0  0  0  0  0  0  0  0  0  0
    4.5510   -0.9560   16.2590 N   0  0  0  0  0  0  0  0  0  0  0  0
    4.0490   -0.2460   15.2350 C   0  0  0  0  0  0  0  0  0  0  0  0
    2.7570   -0.3210   14.7210 C   0  0  0  0  0  0  0  0  0  0  0  0
    1.7970   -1.2240   15.2860 N   0  0  0  0  0  0  0  0  0  0  0  0
    2.4480    0.4920   13.6680 N   0  0  0  0  0  0  0  0  0  0  0  0
    3.3560    1.3600   13.1190 C   0  0  0  0  0  0  0  0  0  0  0  0
    4.6560    1.4140   13.6580 C   0  0  0  0  0  0  0  0  0  0  0  0
    4.9380    0.5980   14.7010 N   0  0  0  0  0  0  0  0  0  0  0  0
    6.0790    0.4540   15.3880 C   0  0  0  0  0  0  0  0  0  0  0  0
    0.4360   -1.4110   14.8670 C   0  0  0  0  0  0  0  0  0  0  0  0
   -0.3000   -2.5490   15.2180 C   0  0  0  0  0  0  0  0  0  0  0  0
   -1.6210   -2.6940   14.7920 C   0  0  0  0  0  0  0  0  0  0  0  0
   -2.2280   -1.7010   14.0060 C   0  0  0  0  0  0  0  0  0  0  0  0
   -1.4960   -0.5580   13.6510 C   0  0  0  0  0  0  0  0  0  0  0  0
   -0.1670   -0.4210   14.0850 C   0  0  0  0  0  0  0  0  0  0  0  0
   -3.5510   -1.8300   13.5700 O   0  0  0  0  0  0  0  0  0  0  0  0
   -4.0430   -3.0060   12.9410 C   0  0  0  0  0  0  0  0  0  0  0  0
   -2.1070    0.4280   12.8680 O   0  0  0  0  0  0  0  0  0  0  0  0
   -1.6100    0.8190   11.5950 C   0  0  0  0  0  0  0  0  0  0  0  0
    2.9640    2.2140   11.9810 C   0  0  0  0  0  0  0  0  0  0  0  0
    3.8550    2.4760   10.9290 C   0  0  0  0  0  0  0  0  0  0  0  0
    3.4700    3.2870    9.8590 C   0  0  0  0  0  0  0  0  0  0  0  0
    2.1890    3.8440    9.8310 C   0  0  0  0  0  0  0  0  0  0  0  0
    1.2850    3.5960   10.8720 C   0  0  0  0  0  0  0  0  0  0  0  0
    1.6800    2.7800   11.9410 C   0  0  0  0  0  0  0  0  0  0  0  0
   -0.0660    4.1810   10.8450 C   0  0  0  0  0  0  0  0  0  0  0  0
   -0.4490    4.8250    9.8300 O   0  0  0  0  0  0  0  0  0  0  0  0
   -0.9380    4.0140   11.9750 N   0  0  0  0  0  0  0  0  0  0  0  0
   -2.2740    4.5150   12.1120 C   0  0  0  0  0  0  0  0  0  0  0  0
   -3.3720    3.8810   11.5120 C   0  0  0  0  0  0  0  0  0  0  0  0
   -4.6600    4.4000   11.6680 C   0  0  0  0  0  0  0  0  0  0  0  0
   -4.8680    5.5610   12.4250 C   0  0  0  0  0  0  0  0  0  0  0  0
   -3.7720    6.1950   13.0230 C   0  0  0  0  0  0  0  0  0  0  0  0
   -2.4840    5.6750   12.8670 C   0  0  0  0  0  0  0  0  0  0  0  0
   -6.2230    6.1120   12.5920 C   0  0  0  0  0  0  0  0  0  0  0  0
   -6.6100    6.5270   13.7160 O   0  0  0  0  0  0  0  0  0  0  0  0
   -7.0880    6.1810   11.5060 O   0  0  0  0  0  0  0  0  0  0  0  0
    6.5637   -0.8705   17.0964 H   0  0  0  0  0  0  0  0  0  0  0  0
    2.1179   -1.8003   16.0771 H   0  0  0  0  0  0  0  0  0  0  0  0
    5.4154    2.0950   13.2462 H   0  0  0  0  0  0  0  0  0  0  0  0
    7.0232    0.9927   15.2201 H   0  0  0  0  0  0  0  0  0  0  0  0
    0.1655   -3.3332   15.8330 H   0  0  0  0  0  0  0  0  0  0  0  0
   -2.1905   -3.5919   15.0737 H   0  0  0  0  0  0  0  0  0  0  0  0
    0.4061    0.4756   13.8064 H   0  0  0  0  0  0  0  0  0  0  0  0
   -4.3470   -3.7327   13.7088 H   0  0  0  0  0  0  0  0  0  0  0  0
   -4.9099   -2.7510   12.3137 H   0  0  0  0  0  0  0  0  0  0  0  0
   -3.2528   -3.4443   12.3137 H   0  0  0  0  0  0  0  0  0  0  0  0
   -0.7518    1.4942   11.7280 H   0  0  0  0  0  0  0  0  0  0  0  0
   -1.2915   -0.0732   11.0359 H   0  0  0  0  0  0  0  0  0  0  0  0
   -2.4021    1.3386   11.0359 H   0  0  0  0  0  0  0  0  0  0  0  0
    4.8644    2.0393   10.9472 H   0  0  0  0  0  0  0  0  0  0  0  0
    4.1751    3.4871    9.0387 H   0  0  0  0  0  0  0  0  0  0  0  0
    1.8884    4.4812    8.9863 H   0  0  0  0  0  0  0  0  0  0  0  0
    0.9737    2.5803   12.7603 H   0  0  0  0  0  0  0  0  0  0  0  0
   -0.5634    3.4776   12.7705 H   0  0  0  0  0  0  0  0  0  0  0  0
   -3.2182    2.9699   10.9152 H   0  0  0  0  0  0  0  0  0  0  0  0
   -5.5147    3.8949   11.1944 H   0  0  0  0  0  0  0  0  0  0  0  0
   -3.9255    7.1070   13.6186 H   0  0  0  0  0  0  0  0  0  0  0  0
   -1.6296    6.1807   13.3407 H   0  0  0  0  0  0  0  0  0  0  0  0
   -7.5227    6.8961   13.8200 H   0  0  0  0  0  0  0  0  0  0  0  0
  1  2  1  0
  1 10  2  0
  2  3  2  0
  3  4  1  0
  3  9  1  0
  4  5  1  0
  4  6  2  0
  5 11  1  0
  6  7  1  0
  7  8  2  0
  7 21  1  0
  8  9  1  0
  9 10  1  0
 11 12  2  0
 11 16  1  0
 12 13  1  0
 13 14  2  0
 14 15  1  0
 14 17  1  0
 15 16  2  0
 15 19  1  0
 17 18  1  0
 19 20  1  0
 21 22  2  0
 21 26  1  0
 22 23  1  0
 23 24  2  0
 24 25  1  0
 25 26  2  0
 25 27  1  0
 27 29  1  0
 27 28  2  0
 29 30  1  0
 30 35  1  0
 30 31  2  0
 31 32  1  0
 32 33  2  0
 33 36  1  0
 33 34  1  0
 34 35  2  0
 36 37  1  0
 36 38  2  0
  1 39  1  0
  5 40  1  0
  8 41  1  0
 10 42  1  0
 12 43  1  0
 13 44  1  0
 16 45  1  0
 18 46  1  0
 18 47  1  0
 18 48  1  0
 20 49  1  0
 20 50  1  0
 20 51  1  0
 22 52  1  0
 23 53  1  0
 24 54  1  0
 26 55  1  0
 29 56  1  0
 31 57  1  0
 32 58  1  0
 34 59  1  0
 35 60  1  0
 37 61  1  0
M  END
>  <s_m_entry_id>  (1) 
880

>  <MODEL>  (1) 
1

>  <REMARK>  (1) 
 VINA RESULT:   -12.357      0.000      0.000
 INTER + INTRA:         -16.034
 INTER:                 -15.128
 INTRA:                  -0.905
 UNBOUND:                 1.380
  Name = /scratch/kmzp800/tmp4zgddko1/tmp39o9i5tx.pdb
  9 active torsions:
  status: ('A' for Active; 'I' for Inactive)
    1  A    between atoms: N2_5  and  C4_6
    2  A    between atoms: C7_9  and  O1_10
    3  A    between atoms: O1_10  and  C8_11
    4  A    between atoms: C9_12  and  O2_13
    5  A    between atoms: O2_13  and  C10_14
    6  A    between atoms: C12_17  and  C13_18
    7  A    between atoms: C17_22  and  C18_23
    8  A    between atoms: N4_25  and  C19_26
    9  A    between atoms: C22_29  and  C23_30
                            x       y       z     vdW  Elec       q    Type
                         _______ _______ _______ _____ _____    ______ ____

>  <TORSDO>  (1) 
F 7

>  <grid_id>  (1) 
syk-prepared

>  <grid_path>  (1) 
syk_vina.pdbqt

>  <grid_filename>  (1) 
syk_vina.pdbqt

>  <docking_score>  (1) 
-12.357

>  <compound_name>  (1) 
CHEMBL3264995

>  <index_string>  (1) 
26:0:0

>  <s_m_Source_Path>  (1) 
/projects/mai/users/kmzp800_harry/pmx_colab/docking_jobs/syk/vina_prep/output

>  <s_m_Source_File>  (1) 
ptp1b_docked_conformers.sdf

>  <i_m_Source_File_Index>  (1) 
704

$$$$
