25:0:0
     RDKit          3D

 50 54  0  0  1  0  0  0  0  0999 V2000
    5.5560   -0.6000   16.2490 C   0  0  0  0  0  0  0  0  0  0  0  0
    4.2740   -1.0280   16.1220 N   0  0  0  0  0  0  0  0  0  0  0  0
    3.7870   -0.2730   15.1220 C   0  0  0  0  0  0  0  0  0  0  0  0
    2.4980   -0.3180   14.5950 C   0  0  0  0  0  0  0  0  0  0  0  0
    1.5330   -1.2400   15.1220 N   0  0  0  0  0  0  0  0  0  0  0  0
    2.2000    0.5380   13.5730 N   0  0  0  0  0  0  0  0  0  0  0  0
    3.1220    1.4190   13.0670 C   0  0  0  0  0  0  0  0  0  0  0  0
    4.4180    1.4430   13.6200 C   0  0  0  0  0  0  0  0  0  0  0  0
    4.6850    0.5840   14.6310 N   0  0  0  0  0  0  0  0  0  0  0  0
    5.8180    0.4060   15.3210 C   0  0  0  0  0  0  0  0  0  0  0  0
    2.7540    2.3280   11.9610 C   0  0  0  0  0  0  0  0  0  0  0  0
    3.6970    2.6180   10.9430 C   0  0  0  0  0  0  0  0  0  0  0  0
    3.3770    3.4790    9.8770 C   0  0  0  0  0  0  0  0  0  0  0  0
    2.1020    4.0320    9.8650 C   0  0  0  0  0  0  0  0  0  0  0  0
    1.4880    4.8960    8.9780 C   0  0  0  0  0  0  0  0  0  0  0  0
    0.2310    5.1170    9.4430 N   0  0  0  0  0  0  0  0  0  0  0  0
    0.0590    4.4280   10.5650 N   0  0  0  0  0  0  0  0  0  0  0  0
   -1.1690    4.4250   11.3410 C   0  0  0  0  0  0  0  0  0  0  0  0
    1.1870    3.7610   10.8390 C   0  0  0  0  0  0  0  0  0  0  0  0
    1.4680    2.9140   11.9080 C   0  0  0  0  0  0  0  0  0  0  0  0
    0.1740   -1.4190   14.7020 C   0  0  0  0  0  0  0  0  0  0  0  0
   -0.4730   -2.6120   15.0290 C   0  0  0  0  0  0  0  0  0  0  0  0
   -1.7960   -2.8290   14.6410 C   0  0  0  0  0  0  0  0  0  0  0  0
   -2.4950   -1.8500   13.9170 C   0  0  0  0  0  0  0  0  0  0  0  0
   -1.8540   -0.6470   13.5850 C   0  0  0  0  0  0  0  0  0  0  0  0
   -0.5210   -0.4390   13.9790 C   0  0  0  0  0  0  0  0  0  0  0  0
   -3.8210   -2.0510   13.5200 O   0  0  0  0  0  0  0  0  0  0  0  0
   -4.2280   -3.1590   12.7280 C   0  0  0  0  0  0  0  0  0  0  0  0
   -2.5600    0.3210   12.8630 O   0  0  0  0  0  0  0  0  0  0  0  0
   -1.9480    1.1530   11.8880 C   0  0  0  0  0  0  0  0  0  0  0  0
    6.2817   -0.9902   16.9777 H   0  0  0  0  0  0  0  0  0  0  0  0
    1.8543   -1.8438   15.8921 H   0  0  0  0  0  0  0  0  0  0  0  0
    5.1853    2.1354   13.2432 H   0  0  0  0  0  0  0  0  0  0  0  0
    6.7664    0.9459   15.1831 H   0  0  0  0  0  0  0  0  0  0  0  0
    4.6969    2.1617   10.9872 H   0  0  0  0  0  0  0  0  0  0  0  0
    4.1064    3.7052    9.0853 H   0  0  0  0  0  0  0  0  0  0  0  0
    1.9331    5.3238    8.0676 H   0  0  0  0  0  0  0  0  0  0  0  0
   -0.9249    4.4256   12.4136 H   0  0  0  0  0  0  0  0  0  0  0  0
   -1.7582    5.3217   11.0985 H   0  0  0  0  0  0  0  0  0  0  0  0
   -1.7538    3.5254   11.0985 H   0  0  0  0  0  0  0  0  0  0  0  0
    0.7161    2.7080   12.6840 H   0  0  0  0  0  0  0  0  0  0  0  0
    0.0637   -3.3865   15.5965 H   0  0  0  0  0  0  0  0  0  0  0  0
   -2.2945   -3.7736   14.9043 H   0  0  0  0  0  0  0  0  0  0  0  0
   -0.0173    0.5032   13.7172 H   0  0  0  0  0  0  0  0  0  0  0  0
   -4.5322   -3.9872   13.3849 H   0  0  0  0  0  0  0  0  0  0  0  0
   -5.0764   -2.8639   12.0931 H   0  0  0  0  0  0  0  0  0  0  0  0
   -3.3903   -3.4833   12.0931 H   0  0  0  0  0  0  0  0  0  0  0  0
   -1.3682    1.9413   12.3905 H   0  0  0  0  0  0  0  0  0  0  0  0
   -1.2774    0.5489   11.2592 H   0  0  0  0  0  0  0  0  0  0  0  0
   -2.7244    1.6132   11.2592 H   0  0  0  0  0  0  0  0  0  0  0  0
  1  2  1  0
  1 10  2  0
  2  3  2  0
  3  4  1  0
  3  9  1  0
  4  5  1  0
  4  6  2  0
  5 21  1  0
  6  7  1  0
  7  8  2  0
  7 11  1  0
  8  9  1  0
  9 10  1  0
 11 12  2  0
 11 20  1  0
 12 13  1  0
 13 14  2  0
 14 19  1  0
 14 15  1  0
 15 16  2  0
 16 17  1  0
 17 19  1  0
 17 18  1  0
 19 20  2  0
 21 22  2  0
 21 26  1  0
 22 23  1  0
 23 24  2  0
 24 25  1  0
 24 27  1  0
 25 26  2  0
 25 29  1  0
 27 28  1  0
 29 30  1  0
  1 31  1  0
  5 32  1  0
  8 33  1  0
 10 34  1  0
 12 35  1  0
 13 36  1  0
 15 37  1  0
 18 38  1  0
 18 39  1  0
 18 40  1  0
 20 41  1  0
 22 42  1  0
 23 43  1  0
 26 44  1  0
 28 45  1  0
 28 46  1  0
 28 47  1  0
 30 48  1  0
 30 49  1  0
 30 50  1  0
M  END
>  <s_m_entry_id>  (1) 
843

>  <MODEL>  (1) 
1

>  <REMARK>  (1) 
 VINA RESULT:   -12.326      0.000      0.000
 INTER + INTRA:         -12.237
 INTER:                 -11.849
 INTRA:                  -0.387
 UNBOUND:                 2.972
  Name = /scratch/kmzp800/tmp5izyjlo0/tmpz57g7qn4.pdb
  7 active torsions:
  status: ('A' for Active; 'I' for Inactive)
    1  A    between atoms: N2_5  and  C4_6
    2  A    between atoms: C7_9  and  O1_10
    3  A    between atoms: O1_10  and  C8_11
    4  A    between atoms: C9_12  and  O2_13
    5  A    between atoms: O2_13  and  C10_14
    6  A    between atoms: C12_17  and  C13_18
    7  A    between atoms: N5_24  and  C18_25
                            x       y       z     vdW  Elec       q    Type
                         _______ _______ _______ _____ _____    ______ ____

>  <TORSDO>  (1) 
F 4

>  <grid_id>  (1) 
syk-prepared

>  <grid_path>  (1) 
syk_vina.pdbqt

>  <grid_filename>  (1) 
syk_vina.pdbqt

>  <docking_score>  (1) 
-12.326

>  <compound_name>  (1) 
CHEMBL3265022

>  <index_string>  (1) 
25:0:0

>  <s_m_Source_Path>  (1) 
/projects/mai/users/kmzp800_harry/pmx_colab/docking_jobs/syk/vina_prep/output

>  <s_m_Source_File>  (1) 
ptp1b_docked_conformers.sdf

>  <i_m_Source_File_Index>  (1) 
667

$$$$
