14:0:0
     RDKit          3D

 46 49  0  0  1  0  0  0  0  0999 V2000
   33.7020   36.1950   20.4360 C   0  0  0  0  0  0  0  0  0  0  0  0
   33.5690   37.5720   20.6050 C   0  0  0  0  0  0  0  0  0  0  0  0
   33.3220   38.0930   21.8700 C   0  0  0  0  0  0  0  0  0  0  0  0
   33.1740   39.4630   22.0690 C   0  0  0  0  0  0  0  0  0  0  0  0
   32.9290   39.9390   23.3170 N   0  0  0  0  0  0  0  0  0  0  0  0
   32.8230   39.1000   24.3810 C   0  0  0  0  0  0  0  0  0  0  0  0
   32.5660   39.6380   25.6800 N   0  0  0  0  0  0  0  0  0  0  0  0
   32.9690   37.7580   24.2050 N   0  0  0  0  0  0  0  0  0  0  0  0
   33.2160   37.2300   22.9740 C   0  0  0  0  0  0  0  0  0  0  0  0
   33.3680   35.8800   22.8040 N   0  0  0  0  0  0  0  0  0  0  0  0
   33.2720   34.9920   23.9590 C   0  0  0  0  0  0  0  0  0  0  0  0
   33.6210   35.3520   21.5640 C   0  0  0  0  0  0  0  0  0  0  0  0
   33.8110   34.1120   21.4320 O   0  0  0  0  0  0  0  0  0  0  0  0
   32.4140   38.8050   26.8630 C   0  0  0  0  0  0  0  0  0  0  0  0
   32.6450   39.6430   28.1220 C   0  0  0  0  0  0  0  0  0  0  0  0
   32.0910   38.9500   29.3760 C   0  0  0  0  0  0  0  0  0  0  0  0
   31.7870   37.6000   29.1230 O   0  0  0  0  0  0  0  0  0  0  0  0
   30.6690   37.6070   28.2680 C   0  0  0  0  0  0  0  0  0  0  0  0
   31.0350   38.1340   26.8710 C   0  0  0  0  0  0  0  0  0  0  0  0
   33.9550   35.7020   19.1470 O   0  0  0  0  0  0  0  0  0  0  0  0
   37.6110   35.9670   18.6740 C   0  0  0  0  0  0  0  0  0  0  0  0
   36.3540   35.9050   19.2820 C   0  0  0  0  0  0  0  0  0  0  0  0
   35.2000   35.7390   18.5070 C   0  0  0  0  0  0  0  0  0  0  0  0
   35.3180   35.6500   17.1090 C   0  0  0  0  0  0  0  0  0  0  0  0
   36.5750   35.7100   16.5010 C   0  0  0  0  0  0  0  0  0  0  0  0
   37.7220   35.8670   17.2840 C   0  0  0  0  0  0  0  0  0  0  0  0
   38.9410   35.9260   16.6970 F   0  0  0  0  0  0  0  0  0  0  0  0
   33.6592   38.2450   19.7396 H   0  0  0  0  0  0  0  0  0  0  0  0
   33.2552   40.1567   21.2192 H   0  0  0  0  0  0  0  0  0  0  0  0
   32.4849   40.6596   25.7830 H   0  0  0  0  0  0  0  0  0  0  0  0
   33.3361   35.5846   24.8835 H   0  0  0  0  0  0  0  0  0  0  0  0
   32.3109   34.4577   23.9318 H   0  0  0  0  0  0  0  0  0  0  0  0
   34.0967   34.2646   23.9318 H   0  0  0  0  0  0  0  0  0  0  0  0
   33.1685   38.0047   26.8455 H   0  0  0  0  0  0  0  0  0  0  0  0
   33.7258   39.8021   28.2509 H   0  0  0  0  0  0  0  0  0  0  0  0
   32.1173   40.6002   27.9981 H   0  0  0  0  0  0  0  0  0  0  0  0
   32.8433   39.0037   30.1767 H   0  0  0  0  0  0  0  0  0  0  0  0
   31.1655   39.4635   29.6757 H   0  0  0  0  0  0  0  0  0  0  0  0
   30.2839   36.5809   28.1739 H   0  0  0  0  0  0  0  0  0  0  0  0
   29.9066   38.2718   28.7002 H   0  0  0  0  0  0  0  0  0  0  0  0
   30.2789   38.8688   26.5575 H   0  0  0  0  0  0  0  0  0  0  0  0
   31.0644   37.2799   26.1784 H   0  0  0  0  0  0  0  0  0  0  0  0
   38.5136   36.0946   19.2897 H   0  0  0  0  0  0  0  0  0  0  0  0
   36.2710   35.9871   20.3758 H   0  0  0  0  0  0  0  0  0  0  0  0
   34.4161   35.5325   16.4903 H   0  0  0  0  0  0  0  0  0  0  0  0
   36.6615   35.6337   15.4071 H   0  0  0  0  0  0  0  0  0  0  0  0
  1  2  2  0
  1 12  1  0
  1 20  1  0
  2  3  1  0
  2 28  1  0
  3  4  2  0
  3  9  1  0
  4  5  1  0
  4 29  1  0
  5  6  2  0
  6  7  1  0
  6  8  1  0
  7 14  1  0
  7 30  1  0
  8  9  2  0
  9 10  1  0
 10 11  1  0
 10 12  1  0
 11 31  1  0
 11 32  1  0
 11 33  1  0
 12 13  2  0
 14 19  1  0
 14 15  1  0
 14 34  1  0
 15 16  1  0
 15 35  1  0
 15 36  1  0
 16 17  1  0
 16 37  1  0
 16 38  1  0
 17 18  1  0
 18 19  1  0
 18 39  1  0
 18 40  1  0
 19 41  1  0
 19 42  1  0
 20 23  1  0
 21 22  2  0
 21 26  1  0
 21 43  1  0
 22 23  1  0
 22 44  1  0
 23 24  2  0
 24 25  1  0
 24 45  1  0
 25 26  2  0
 25 46  1  0
 26 27  1  0
M  END
>  <s_m_entry_id>  (1) 
1369

>  <MODEL>  (1) 
1

>  <REMARK>  (1) 
 VINA RESULT:    -8.558      0.000      0.000
 INTER + INTRA:         -10.536
 INTER:                 -10.059
 INTRA:                  -0.477
 UNBOUND:                -0.477
  Name = /scratch/kmzp800/tmpzafzk4_q/tmp1bng5gy6.pdb
  4 active torsions:
  status: ('A' for Active; 'I' for Inactive)
    1  A    between atoms: C3_3  and  O1_4
    2  A    between atoms: O1_4  and  C4_5
    3  A    between atoms: N2_11  and  C9_12
    4  A    between atoms: N4_20  and  C15_21
                            x       y       z     vdW  Elec       q    Type
                         _______ _______ _______ _____ _____    ______ ____

>  <TORSDO>  (1) 
F 3

>  <grid_id>  (1) 
p38-prepared

>  <grid_path>  (1) 
/projects/mai/users/kmzp800_harry/pmx_colab/docking_jobs/p38/vina_docking/input_files/p38_vina.pdbqt

>  <grid_filename>  (1) 
p38_vina.pdbqt

>  <docking_score>  (1) 
-8.558

>  <compound_name>  (1) 
lig_p38a_2e

>  <index_string>  (1) 
14:0:0

>  <s_m_Source_Path>  (1) 
/projects/mai/users/kmzp800_harry/pmx_colab/docking_jobs/p38

>  <s_m_Source_File>  (1) 
p38_confs_vina_naive.sdf

>  <i_m_Source_File_Index>  (1) 
16

$$$$
