24:0:0
     RDKit          3D

 64 68  0  0  1  0  0  0  0  0999 V2000
    5.9070   -0.5680   16.5080 C   0  0  0  0  0  0  0  0  0  0  0  0
    4.6070   -0.9540   16.4680 N   0  0  0  0  0  0  0  0  0  0  0  0
    4.1050   -0.2620   15.4310 C   0  0  0  0  0  0  0  0  0  0  0  0
    2.7960   -0.3040   14.9570 C   0  0  0  0  0  0  0  0  0  0  0  0
    1.8100   -1.1270   15.5960 N   0  0  0  0  0  0  0  0  0  0  0  0
    2.4830    0.4900   13.8900 N   0  0  0  0  0  0  0  0  0  0  0  0
    3.4110    1.2930   13.2800 C   0  0  0  0  0  0  0  0  0  0  0  0
    4.7310    1.3060   13.7710 C   0  0  0  0  0  0  0  0  0  0  0  0
    5.0110    0.5170   14.8360 N   0  0  0  0  0  0  0  0  0  0  0  0
    6.1660    0.3500   15.4920 C   0  0  0  0  0  0  0  0  0  0  0  0
    0.5110   -1.4420   15.0820 C   0  0  0  0  0  0  0  0  0  0  0  0
   -0.0760   -2.6610   15.4290 C   0  0  0  0  0  0  0  0  0  0  0  0
   -1.3310   -3.0090   14.9240 C   0  0  0  0  0  0  0  0  0  0  0  0
   -2.0140   -2.1420   14.0560 C   0  0  0  0  0  0  0  0  0  0  0  0
   -1.4260   -0.9230   13.6900 C   0  0  0  0  0  0  0  0  0  0  0  0
   -0.1660   -0.5810   14.2070 C   0  0  0  0  0  0  0  0  0  0  0  0
   -3.2740   -2.4740   13.5430 O   0  0  0  0  0  0  0  0  0  0  0  0
   -4.3750   -2.8220   14.3710 C   0  0  0  0  0  0  0  0  0  0  0  0
   -2.1040   -0.0700   12.8120 O   0  0  0  0  0  0  0  0  0  0  0  0
   -1.4550    0.6060   11.7440 C   0  0  0  0  0  0  0  0  0  0  0  0
    3.0160    2.1370   12.1330 C   0  0  0  0  0  0  0  0  0  0  0  0
    3.9320    2.4470   11.1150 C   0  0  0  0  0  0  0  0  0  0  0  0
    3.5470    3.2460   10.0370 C   0  0  0  0  0  0  0  0  0  0  0  0
    2.2460    3.7470    9.9670 C   0  0  0  0  0  0  0  0  0  0  0  0
    1.3180    3.4520   10.9750 C   0  0  0  0  0  0  0  0  0  0  0  0
    1.7110    2.6450   12.0520 C   0  0  0  0  0  0  0  0  0  0  0  0
   -0.0530    3.9890   10.9070 C   0  0  0  0  0  0  0  0  0  0  0  0
   -0.4840    4.4660    9.8220 O   0  0  0  0  0  0  0  0  0  0  0  0
   -0.8880    3.9570   12.0740 N   0  0  0  0  0  0  0  0  0  0  0  0
   -2.2310    4.4500   12.1840 C   0  0  0  0  0  0  0  0  0  0  0  0
   -3.3200    3.7730   11.6160 C   0  0  0  0  0  0  0  0  0  0  0  0
   -4.6150    4.2840   11.7420 C   0  0  0  0  0  0  0  0  0  0  0  0
   -4.8370    5.4790   12.4390 C   0  0  0  0  0  0  0  0  0  0  0  0
   -3.7480    6.1560   13.0070 C   0  0  0  0  0  0  0  0  0  0  0  0
   -2.4550    5.6420   12.8790 C   0  0  0  0  0  0  0  0  0  0  0  0
   -6.2020    6.0140   12.5700 C   0  0  0  0  0  0  0  0  0  0  0  0
   -6.5460    6.6170   13.6250 O   0  0  0  0  0  0  0  0  0  0  0  0
   -7.1130    5.8530   11.5230 O   0  0  0  0  0  0  0  0  0  0  0  0
   -7.3300    6.8670   10.5540 C   0  0  0  0  0  0  0  0  0  0  0  0
    6.6487   -0.9274   17.2365 H   0  0  0  0  0  0  0  0  0  0  0  0
    2.0599   -1.5293   16.5107 H   0  0  0  0  0  0  0  0  0  0  0  0
    5.5060    1.9337   13.3068 H   0  0  0  0  0  0  0  0  0  0  0  0
    7.1266    0.8392   15.2730 H   0  0  0  0  0  0  0  0  0  0  0  0
    0.4528   -3.3506   16.1035 H   0  0  0  0  0  0  0  0  0  0  0  0
   -1.7873   -3.9687   15.2082 H   0  0  0  0  0  0  0  0  0  0  0  0
    0.2961    0.3755   13.9215 H   0  0  0  0  0  0  0  0  0  0  0  0
   -4.0829   -2.7297   15.4275 H   0  0  0  0  0  0  0  0  0  0  0  0
   -5.2179   -2.1465   14.1633 H   0  0  0  0  0  0  0  0  0  0  0  0
   -4.6766   -3.8593   14.1633 H   0  0  0  0  0  0  0  0  0  0  0  0
   -0.7476    1.3428   12.1524 H   0  0  0  0  0  0  0  0  0  0  0  0
   -0.9096   -0.1227   11.1264 H   0  0  0  0  0  0  0  0  0  0  0  0
   -2.2053    1.1213   11.1264 H   0  0  0  0  0  0  0  0  0  0  0  0
    4.9595    2.0578   11.1673 H   0  0  0  0  0  0  0  0  0  0  0  0
    4.2697    3.4811    9.2418 H   0  0  0  0  0  0  0  0  0  0  0  0
    1.9475    4.3768    9.1160 H   0  0  0  0  0  0  0  0  0  0  0  0
    0.9861    2.4069   12.8443 H   0  0  0  0  0  0  0  0  0  0  0  0
   -0.4805    3.5361   12.9212 H   0  0  0  0  0  0  0  0  0  0  0  0
   -3.1540    2.8339   11.0678 H   0  0  0  0  0  0  0  0  0  0  0  0
   -5.4627    3.7461   11.2924 H   0  0  0  0  0  0  0  0  0  0  0  0
   -3.9124    7.0953   13.5554 H   0  0  0  0  0  0  0  0  0  0  0  0
   -1.6070    6.1794   13.3285 H   0  0  0  0  0  0  0  0  0  0  0  0
   -7.5342    7.8214   11.0614 H   0  0  0  0  0  0  0  0  0  0  0  0
   -6.4337    6.9707    9.9248 H   0  0  0  0  0  0  0  0  0  0  0  0
   -8.1902    6.5948    9.9248 H   0  0  0  0  0  0  0  0  0  0  0  0
  1  2  1  0
  1 10  2  0
  2  3  2  0
  3  4  1  0
  3  9  1  0
  4  5  1  0
  4  6  2  0
  5 11  1  0
  6  7  1  0
  7  8  2  0
  7 21  1  0
  8  9  1  0
  9 10  1  0
 11 12  2  0
 11 16  1  0
 12 13  1  0
 13 14  2  0
 14 15  1  0
 14 17  1  0
 15 16  2  0
 15 19  1  0
 17 18  1  0
 19 20  1  0
 21 22  2  0
 21 26  1  0
 22 23  1  0
 23 24  2  0
 24 25  1  0
 25 26  2  0
 25 27  1  0
 27 29  1  0
 27 28  2  0
 29 30  1  0
 30 35  1  0
 30 31  2  0
 31 32  1  0
 32 33  2  0
 33 36  1  0
 33 34  1  0
 34 35  2  0
 36 37  2  0
 36 38  1  0
 38 39  1  0
  1 40  1  0
  5 41  1  0
  8 42  1  0
 10 43  1  0
 12 44  1  0
 13 45  1  0
 16 46  1  0
 18 47  1  0
 18 48  1  0
 18 49  1  0
 20 50  1  0
 20 51  1  0
 20 52  1  0
 22 53  1  0
 23 54  1  0
 24 55  1  0
 26 56  1  0
 29 57  1  0
 31 58  1  0
 32 59  1  0
 34 60  1  0
 35 61  1  0
 39 62  1  0
 39 63  1  0
 39 64  1  0
M  END
>  <s_m_entry_id>  (1) 
25

>  <MODEL>  (1) 
1

>  <REMARK>  (1) 
 VINA RESULT:   -10.285      0.000      0.000
 INTER + INTRA:         -16.197
 INTER:                 -15.095
 INTRA:                  -1.102
 UNBOUND:                -1.102
  Name = /scratch/kmzp800/tmplfij1_5u/tmp9ubqv3no.pdb
  11 active torsions:
  status: ('A' for Active; 'I' for Inactive)
    1  A    between atoms: N2_5  and  C4_6
    2  A    between atoms: C7_9  and  O1_10
    3  A    between atoms: O1_10  and  C8_11
    4  A    between atoms: C9_12  and  O2_13
    5  A    between atoms: O2_13  and  C10_14
    6  A    between atoms: C12_17  and  C13_18
    7  A    between atoms: C17_22  and  C18_23
    8  A    between atoms: N4_25  and  C19_26
    9  A    between atoms: C22_29  and  C23_30
   10  A    between atoms: C23_30  and  O5_32
   11  A    between atoms: O5_32  and  C24_33
                            x       y       z     vdW  Elec       q    Type
                         _______ _______ _______ _____ _____    ______ ____

>  <TORSDO>  (1) 
F 8

>  <grid_id>  (1) 
syk-prepared

>  <grid_path>  (1) 
syk_vina.pdbqt

>  <grid_filename>  (1) 
syk_vina.pdbqt

>  <docking_score>  (1) 
-10.285

>  <compound_name>  (1) 
CHEMBL3264996

>  <index_string>  (1) 
24:0:0

>  <s_m_Source_Path>  (1) 
/projects/mai/users/kmzp800_harry/pmx_colab/docking_jobs/syk/vina_prep/output

>  <s_m_Source_File>  (1) 
ptp1b_docked_conformers.sdf

>  <i_m_Source_File_Index>  (1) 
25

$$$$
