0:0:0
     RDKit          3D

 39 41  0  0  1  0  0  0  0  0999 V2000
  -14.8482  -16.9947  -26.7446 N   0  0  0  0  0  0  0  0  0  0  0  0
  -15.3625  -17.7782  -25.8430 C   0  0  0  0  0  0  0  0  0  0  0  0
  -16.1267  -17.2456  -24.8125 N   0  0  0  0  0  0  0  0  0  0  0  0
  -16.3702  -15.9478  -24.6072 C   0  0  0  0  0  0  0  0  0  0  0  0
  -17.0506  -15.5727  -23.6555 O   0  0  0  0  0  0  0  0  0  0  0  0
  -15.1997  -19.2558  -25.9307 C   0  0  0  0  0  0  0  0  0  0  0  0
  -14.7809  -19.8411  -27.1385 C   0  0  0  0  0  0  0  0  0  0  0  0
  -14.5621  -21.2189  -27.2177 C   0  0  0  0  0  0  0  0  0  0  0  0
  -14.7755  -22.0595  -26.1075 C   0  0  0  0  0  0  0  0  0  0  0  0
  -15.2334  -21.4701  -24.9079 C   0  0  0  0  0  0  0  0  0  0  0  0
  -15.4428  -20.0841  -24.8165 C   0  0  0  0  0  0  0  0  0  0  0  0
  -14.4793  -23.5691  -26.1585 C   0  0  0  0  0  0  0  0  0  0  0  0
  -15.0311  -15.6040  -26.6756 C   0  0  0  0  0  0  0  0  0  0  0  0
  -15.7573  -15.0206  -25.6141 C   0  0  0  0  0  0  0  0  0  0  0  0
  -15.8809  -13.6204  -25.5198 C   0  0  0  0  0  0  0  0  0  0  0  0
  -15.2482  -12.8061  -26.4815 C   0  0  0  0  0  0  0  0  0  0  0  0
  -14.5361  -13.3844  -27.5429 C   0  0  0  0  0  0  0  0  0  0  0  0
  -14.4480  -14.7792  -27.6524 C   0  0  0  0  0  0  0  0  0  0  0  0
  -13.2255  -23.8300  -25.2983 C   0  0  0  0  0  0  0  0  0  0  0  0
  -14.1585  -24.0815  -27.5648 C   0  0  0  0  0  0  0  0  0  0  0  0
  -15.7287  -24.3413  -25.7014 C   0  0  0  0  0  0  0  0  0  0  0  0
  -16.5703  -17.8835  -24.1633 H   0  0  0  0  0  0  0  0  0  0  0  0
  -14.5926  -19.2303  -28.0130 H   0  0  0  0  0  0  0  0  0  0  0  0
  -14.1978  -21.5727  -28.1577 H   0  0  0  0  0  0  0  0  0  0  0  0
  -15.3998  -22.0826  -24.0327 H   0  0  0  0  0  0  0  0  0  0  0  0
  -15.7745  -19.6763  -23.8733 H   0  0  0  0  0  0  0  0  0  0  0  0
  -16.4312  -13.1696  -24.7036 H   0  0  0  0  0  0  0  0  0  0  0  0
  -15.3174  -11.7274  -26.4115 H   0  0  0  0  0  0  0  0  0  0  0  0
  -14.0631  -12.7498  -28.2758 H   0  0  0  0  0  0  0  0  0  0  0  0
  -13.8954  -15.2196  -28.4688 H   0  0  0  0  0  0  0  0  0  0  0  0
  -12.8481  -24.8433  -25.3785 H   0  0  0  0  0  0  0  0  0  0  0  0
  -13.3945  -23.6108  -24.2445 H   0  0  0  0  0  0  0  0  0  0  0  0
  -12.4117  -23.1852  -25.6277 H   0  0  0  0  0  0  0  0  0  0  0  0
  -14.9839  -23.9066  -28.2543 H   0  0  0  0  0  0  0  0  0  0  0  0
  -13.2586  -23.6002  -27.9375 H   0  0  0  0  0  0  0  0  0  0  0  0
  -13.9728  -25.1540  -27.5639 H   0  0  0  0  0  0  0  0  0  0  0  0
  -16.5938  -24.0171  -26.2810 H   0  0  0  0  0  0  0  0  0  0  0  0
  -15.6479  -25.4105  -25.8898 H   0  0  0  0  0  0  0  0  0  0  0  0
  -15.9534  -24.1877  -24.6478 H   0  0  0  0  0  0  0  0  0  0  0  0
  1  2  2  0
  1 13  1  0
  2  3  1  0
  2  6  1  0
  3  4  1  0
  3 22  1  0
  4  5  2  0
  4 14  1  0
  6  7  2  0
  6 11  1  0
  7  8  1  0
  7 23  1  0
  8  9  2  0
  8 24  1  0
  9 10  1  0
  9 12  1  0
 10 11  2  0
 10 25  1  0
 11 26  1  0
 12 19  1  0
 12 20  1  0
 12 21  1  0
 13 14  2  0
 13 18  1  0
 14 15  1  0
 15 16  2  0
 15 27  1  0
 16 17  1  0
 16 28  1  0
 17 18  2  0
 17 29  1  0
 18 30  1  0
 19 31  1  0
 19 32  1  0
 19 33  1  0
 20 34  1  0
 20 35  1  0
 20 36  1  0
 21 37  1  0
 21 38  1  0
 21 39  1  0
M  END
>  <s_m_entry_id>  (1) 
497

>  <Name>  (1) 
3a

>  <IC50[nM]>  (1) 
8.7

>  <s_m_Source_Path>  (1) 
/projects/mai/users/kmzp800_harry/pmx_colab/docking_jobs/tnks2

>  <s_m_Source_File>  (1) 
tnks2_lig.sdf

>  <i_m_Source_File_Index>  (1) 
8

>  <s_m_job_name>  (1) 
glide-dock_SP_tnks_mcs_fallabck

>  <r_i_docking_score>  (1) 
-10.5050210324206

>  <r_i_glide_gscore>  (1) 
-10.5050210324206

>  <r_i_glide_emodel>  (1) 
-61.2002246464473

>  <index_string>  (1) 
0:0:0

$$$$
