39:0:0
     RDKit          3D

 51 54  0  0  1  0  0  0  0  0999 V2000
    5.4770   -0.5720   16.2600 C   0  0  0  0  0  0  0  0  0  0  0  0
    4.1720   -0.9350   16.1670 N   0  0  0  0  0  0  0  0  0  0  0  0
    3.7180   -0.2160   15.1260 C   0  0  0  0  0  0  0  0  0  0  0  0
    2.4270   -0.2180   14.6100 C   0  0  0  0  0  0  0  0  0  0  0  0
    1.4040   -1.0320   15.2010 N   0  0  0  0  0  0  0  0  0  0  0  0
    2.1690    0.6000   13.5480 N   0  0  0  0  0  0  0  0  0  0  0  0
    3.1320    1.3900   12.9760 C   0  0  0  0  0  0  0  0  0  0  0  0
    4.4300    1.3750   13.5230 C   0  0  0  0  0  0  0  0  0  0  0  0
    4.6580    0.5590   14.5790 N   0  0  0  0  0  0  0  0  0  0  0  0
    5.7860    0.3600   15.2730 C   0  0  0  0  0  0  0  0  0  0  0  0
    2.7670    2.2790   11.8440 C   0  0  0  0  0  0  0  0  0  0  0  0
    1.4480    2.7570   11.7920 C   0  0  0  0  0  0  0  0  0  0  0  0
    1.0180    3.6050   10.7650 C   0  0  0  0  0  0  0  0  0  0  0  0
    1.9220    3.9790    9.7650 C   0  0  0  0  0  0  0  0  0  0  0  0
    3.2340    3.5070    9.7910 C   0  0  0  0  0  0  0  0  0  0  0  0
    3.6670    2.6610   10.8170 C   0  0  0  0  0  0  0  0  0  0  0  0
    5.0700    2.1590   10.7400 C   0  0  0  0  0  0  0  0  0  0  0  0
   -0.3700    4.1010   10.7410 C   0  0  0  0  0  0  0  0  0  0  0  0
   -0.8760    4.6260   11.7690 O   0  0  0  0  0  0  0  0  0  0  0  0
   -1.1540    3.9920    9.5570 N   0  0  0  0  0  0  0  0  0  0  0  0
    0.0750   -1.2350   14.7010 C   0  0  0  0  0  0  0  0  0  0  0  0
   -0.5250   -2.4850   14.8650 C   0  0  0  0  0  0  0  0  0  0  0  0
   -1.8120   -2.7200   14.3780 C   0  0  0  0  0  0  0  0  0  0  0  0
   -2.5180   -1.7050   13.7100 C   0  0  0  0  0  0  0  0  0  0  0  0
   -1.9190   -0.4490   13.5310 C   0  0  0  0  0  0  0  0  0  0  0  0
   -0.6250   -0.2230   14.0280 C   0  0  0  0  0  0  0  0  0  0  0  0
   -3.8080   -1.9240   13.2160 O   0  0  0  0  0  0  0  0  0  0  0  0
   -4.2910   -3.2150   12.8690 C   0  0  0  0  0  0  0  0  0  0  0  0
   -2.6210    0.5560   12.8580 O   0  0  0  0  0  0  0  0  0  0  0  0
   -2.0800    1.2650   11.7520 C   0  0  0  0  0  0  0  0  0  0  0  0
    6.1868   -0.9581   17.0065 H   0  0  0  0  0  0  0  0  0  0  0  0
    1.6490   -1.5208   16.0739 H   0  0  0  0  0  0  0  0  0  0  0  0
    5.2304    2.0043   13.1067 H   0  0  0  0  0  0  0  0  0  0  0  0
    6.7615    0.8374   15.0982 H   0  0  0  0  0  0  0  0  0  0  0  0
    0.7366    2.4583   12.5760 H   0  0  0  0  0  0  0  0  0  0  0  0
    1.5966    4.6481    8.9548 H   0  0  0  0  0  0  0  0  0  0  0  0
    3.9351    3.8030    8.9968 H   0  0  0  0  0  0  0  0  0  0  0  0
    5.4652    2.0176   11.7568 H   0  0  0  0  0  0  0  0  0  0  0  0
    5.0870    1.1990   10.2032 H   0  0  0  0  0  0  0  0  0  0  0  0
    5.6922    2.8903   10.2032 H   0  0  0  0  0  0  0  0  0  0  0  0
   -2.1232    4.3406    9.5472 H   0  0  0  0  0  0  0  0  0  0  0  0
   -0.7518    3.5645    8.7106 H   0  0  0  0  0  0  0  0  0  0  0  0
    0.0197   -3.2894   15.3810 H   0  0  0  0  0  0  0  0  0  0  0  0
   -2.2770   -3.7070   14.5182 H   0  0  0  0  0  0  0  0  0  0  0  0
   -0.1541    0.7611   13.8875 H   0  0  0  0  0  0  0  0  0  0  0  0
   -4.5043   -3.7852   13.7852 H   0  0  0  0  0  0  0  0  0  0  0  0
   -5.2124   -3.1147   12.2766 H   0  0  0  0  0  0  0  0  0  0  0  0
   -3.5300   -3.7442   12.2766 H   0  0  0  0  0  0  0  0  0  0  0  0
   -1.4506    2.0898   12.1176 H   0  0  0  0  0  0  0  0  0  0  0  0
   -1.4712    0.5822   11.1411 H   0  0  0  0  0  0  0  0  0  0  0  0
   -2.8993    1.6719   11.1411 H   0  0  0  0  0  0  0  0  0  0  0  0
  1  2  1  0
  1 10  2  0
  2  3  2  0
  3  4  1  0
  3  9  1  0
  4  5  1  0
  4  6  2  0
  5 21  1  0
  6  7  1  0
  7  8  2  0
  7 11  1  0
  8  9  1  0
  9 10  1  0
 11 12  2  0
 11 16  1  0
 12 13  1  0
 13 14  2  0
 13 18  1  0
 14 15  1  0
 15 16  2  0
 16 17  1  0
 18 19  2  0
 18 20  1  0
 21 22  2  0
 21 26  1  0
 22 23  1  0
 23 24  2  0
 24 25  1  0
 24 27  1  0
 25 26  2  0
 25 29  1  0
 27 28  1  0
 29 30  1  0
  1 31  1  0
  5 32  1  0
  8 33  1  0
 10 34  1  0
 12 35  1  0
 14 36  1  0
 15 37  1  0
 17 38  1  0
 17 39  1  0
 17 40  1  0
 20 41  1  0
 20 42  1  0
 22 43  1  0
 23 44  1  0
 26 45  1  0
 28 46  1  0
 28 47  1  0
 28 48  1  0
 30 49  1  0
 30 50  1  0
 30 51  1  0
M  END
>  <s_m_entry_id>  (1) 
1110

>  <MODEL>  (1) 
1

>  <REMARK>  (1) 
 VINA RESULT:    -9.538      0.000      0.000
 INTER + INTRA:         -12.442
 INTER:                 -12.398
 INTRA:                  -0.044
 UNBOUND:                -0.116
  Name = /scratch/kmzp800/tmpaoq8cq2u/tmp5_l_qmyh.pdb
  8 active torsions:
  status: ('A' for Active; 'I' for Inactive)
    1  A    between atoms: N2_5  and  C4_6
    2  A    between atoms: C7_9  and  O1_10
    3  A    between atoms: O1_10  and  C8_11
    4  A    between atoms: C9_12  and  O2_13
    5  A    between atoms: O2_13  and  C10_14
    6  A    between atoms: C12_17  and  C13_18
    7  A    between atoms: C15_20  and  C16_21
    8  A    between atoms: C19_26  and  C20_27
                            x       y       z     vdW  Elec       q    Type
                         _______ _______ _______ _____ _____    ______ ____

>  <TORSDO>  (1) 
F 5

>  <grid_id>  (1) 
syk-prepared

>  <grid_path>  (1) 
syk_vina.pdbqt

>  <grid_filename>  (1) 
syk_vina.pdbqt

>  <docking_score>  (1) 
-9.538

>  <compound_name>  (1) 
CHEMBL3265011

>  <index_string>  (1) 
39:0:0

>  <s_m_Source_Path>  (1) 
/projects/mai/users/kmzp800_harry/pmx_colab/docking_jobs/syk/vina_prep/output

>  <s_m_Source_File>  (1) 
ptp1b_docked_conformers.sdf

>  <i_m_Source_File_Index>  (1) 
934

$$$$
