14:0:0
     RDKit          3D

 46 49  0  0  1  0  0  0  0  0999 V2000
  -14.3676  -14.9950  -27.7534 C   0  0  0  0  0  0  0  0  0  0  0  0
  -14.9682  -15.7713  -26.7380 C   0  0  0  0  0  0  0  0  0  0  0  0
  -14.4482  -13.5965  -27.7282 C   0  0  0  0  0  0  0  0  0  0  0  0
  -15.6580  -15.1187  -25.6884 C   0  0  0  0  0  0  0  0  0  0  0  0
  -14.8231  -17.1694  -26.7385 N   0  0  0  0  0  0  0  0  0  0  0  0
  -15.1593  -12.9549  -26.7057 C   0  0  0  0  0  0  0  0  0  0  0  0
  -15.7674  -13.7085  -25.6779 C   0  0  0  0  0  0  0  0  0  0  0  0
  -16.2357  -15.9787  -24.6006 C   0  0  0  0  0  0  0  0  0  0  0  0
  -16.0317  -17.2951  -24.7334 N   0  0  0  0  0  0  0  0  0  0  0  0
  -16.8482  -15.5260  -23.6433 O   0  0  0  0  0  0  0  0  0  0  0  0
  -15.3063  -17.8939  -25.7673 C   0  0  0  0  0  0  0  0  0  0  0  0
  -15.1354  -19.3755  -25.7843 C   0  0  0  0  0  0  0  0  0  0  0  0
  -14.8482  -20.0119  -27.0055 C   0  0  0  0  0  0  0  0  0  0  0  0
  -14.6777  -21.3970  -27.0487 C   0  0  0  0  0  0  0  0  0  0  0  0
  -14.7708  -22.1849  -25.8926 C   0  0  0  0  0  0  0  0  0  0  0  0
  -15.0617  -21.5578  -24.6632 C   0  0  0  0  0  0  0  0  0  0  0  0
  -15.2481  -20.1583  -24.6098 C   0  0  0  0  0  0  0  0  0  0  0  0
  -13.6493  -15.5726  -28.7385 F   0  0  0  0  0  0  0  0  0  0  0  0
  -15.2481  -11.6084  -26.7386 F   0  0  0  0  0  0  0  0  0  0  0  0
  -14.5444  -23.6842  -26.0141 C   0  0  0  0  0  0  0  0  0  0  0  0
  -15.5681  -24.3194  -26.9809 C   0  0  0  0  0  0  0  0  0  0  0  0
  -15.2689  -25.7988  -27.2513 C   0  0  0  0  0  0  0  0  0  0  0  0
  -13.8903  -25.9789  -27.7735 N   0  0  0  0  0  0  0  0  0  0  0  0
  -12.8625  -25.4660  -26.8334 C   0  0  0  0  0  0  0  0  0  0  0  0
  -13.1017  -23.9856  -26.4868 C   0  0  0  0  0  0  0  0  0  0  0  0
  -13.6205  -27.3737  -28.1901 C   0  0  0  0  0  0  0  0  0  0  0  0
  -13.9736  -13.0092  -28.5005 H   0  0  0  0  0  0  0  0  0  0  0  0
  -16.3023  -13.2040  -24.8846 H   0  0  0  0  0  0  0  0  0  0  0  0
  -16.4688  -17.8923  -24.0424 H   0  0  0  0  0  0  0  0  0  0  0  0
  -14.7528  -19.4506  -27.9244 H   0  0  0  0  0  0  0  0  0  0  0  0
  -14.4476  -21.8592  -27.9818 H   0  0  0  0  0  0  0  0  0  0  0  0
  -15.1424  -22.1403  -23.7575 H   0  0  0  0  0  0  0  0  0  0  0  0
  -15.4756  -19.6998  -23.6589 H   0  0  0  0  0  0  0  0  0  0  0  0
  -14.6893  -24.1167  -25.0249 H   0  0  0  0  0  0  0  0  0  0  0  0
  -15.5739  -23.7993  -27.9382 H   0  0  0  0  0  0  0  0  0  0  0  0
  -16.5753  -24.2131  -26.5756 H   0  0  0  0  0  0  0  0  0  0  0  0
  -15.9879  -26.1842  -27.9760 H   0  0  0  0  0  0  0  0  0  0  0  0
  -15.4090  -26.3727  -26.3387 H   0  0  0  0  0  0  0  0  0  0  0  0
  -11.8736  -25.5690  -27.2831 H   0  0  0  0  0  0  0  0  0  0  0  0
  -12.8481  -26.0830  -25.9386 H   0  0  0  0  0  0  0  0  0  0  0  0
  -12.3939  -23.6658  -25.7211 H   0  0  0  0  0  0  0  0  0  0  0  0
  -12.8640  -23.4002  -27.3752 H   0  0  0  0  0  0  0  0  0  0  0  0
  -13.6602  -28.0540  -27.3383 H   0  0  0  0  0  0  0  0  0  0  0  0
  -14.3521  -27.7063  -28.9274 H   0  0  0  0  0  0  0  0  0  0  0  0
  -12.6328  -27.4575  -28.6451 H   0  0  0  0  0  0  0  0  0  0  0  0
  -13.8240  -25.4150  -28.6093 H   0  0  0  0  0  0  0  0  0  0  0  0
  1  2  2  0
  1  3  1  0
  1 18  1  0
  2  4  1  0
  2  5  1  0
  3  6  2  0
  3 27  1  0
  4  7  2  0
  4  8  1  0
  5 11  2  0
  6  7  1  0
  6 19  1  0
  7 28  1  0
  8  9  1  0
  8 10  2  0
  9 11  1  0
  9 29  1  0
 11 12  1  0
 12 13  2  0
 12 17  1  0
 13 14  1  0
 13 30  1  0
 14 15  2  0
 14 31  1  0
 15 16  1  0
 15 20  1  0
 16 17  2  0
 16 32  1  0
 17 33  1  0
 20 21  1  0
 20 25  1  0
 20 34  1  0
 21 22  1  0
 21 35  1  0
 21 36  1  0
 22 23  1  0
 22 37  1  0
 22 38  1  0
 23 24  1  0
 23 26  1  0
 23 46  1  0
 24 25  1  0
 24 39  1  0
 24 40  1  0
 25 41  1  0
 25 42  1  0
 26 43  1  0
 26 44  1  0
 26 45  1  0
M  CHG  1  23   1
M  END
>  <s_m_entry_id>  (1) 
429

>  <Name>  (1) 
8e

>  <IC50[nM]>  (1) 
31

>  <s_m_Source_Path>  (1) 
/projects/mai/users/kmzp800_harry/pmx_colab/docking_jobs/tnks2

>  <s_m_Source_File>  (1) 
tnks2_lig.sdf

>  <i_m_Source_File_Index>  (1) 
15

>  <s_m_job_name>  (1) 
glide-dock_SP_tnks2_no_cons

>  <r_i_docking_score>  (1) 
-10.7820482469592

>  <r_i_glide_gscore>  (1) 
-10.7820482469592

>  <r_i_glide_emodel>  (1) 
-64.3901340772122

>  <index_string>  (1) 
14:0:0

$$$$
