17:0:0
     RDKit          3D

 43 45  0  0  1  0  0  0  0  0999 V2000
   33.0940   37.2050   26.1270 N   0  0  0  0  0  0  0  0  0  0  0  0
   33.2700   37.1190   24.7090 C   0  0  0  0  0  0  0  0  0  0  0  0
   33.6250   38.2160   23.9820 N   0  0  0  0  0  0  0  0  0  0  0  0
   33.7930   38.1420   22.6360 C   0  0  0  0  0  0  0  0  0  0  0  0
   33.6010   36.9290   21.9830 C   0  0  0  0  0  0  0  0  0  0  0  0
   33.7650   36.8180   20.6080 C   0  0  0  0  0  0  0  0  0  0  0  0
   33.5570   35.5860   19.9790 C   0  0  0  0  0  0  0  0  0  0  0  0
   33.2030   34.4730   20.7580 C   0  0  0  0  0  0  0  0  0  0  0  0
   33.0300   33.3570   20.1950 O   0  0  0  0  0  0  0  0  0  0  0  0
   33.0450   34.5960   22.1140 N   0  0  0  0  0  0  0  0  0  0  0  0
   32.6710   33.4250   22.9030 C   0  0  0  0  0  0  0  0  0  0  0  0
   33.2350   35.8010   22.7370 C   0  0  0  0  0  0  0  0  0  0  0  0
   33.0790   35.9260   24.0840 N   0  0  0  0  0  0  0  0  0  0  0  0
   33.2660   38.4200   26.9210 C   0  0  0  0  0  0  0  0  0  0  0  0
   31.9450   39.1720   27.0370 C   0  0  0  0  0  0  0  0  0  0  0  0
   31.8380   40.1180   26.0180 O   0  0  0  0  0  0  0  0  0  0  0  0
   33.8490   38.0850   28.2880 C   0  0  0  0  0  0  0  0  0  0  0  0
   34.8030   37.0730   28.1710 O   0  0  0  0  0  0  0  0  0  0  0  0
   33.7350   35.4320   18.5950 O   0  0  0  0  0  0  0  0  0  0  0  0
   34.9560   35.5660   17.9200 C   0  0  0  0  0  0  0  0  0  0  0  0
   36.1110   35.8030   18.6750 C   0  0  0  0  0  0  0  0  0  0  0  0
   37.3530   35.9360   18.0470 C   0  0  0  0  0  0  0  0  0  0  0  0
   37.4470   35.8240   16.6580 C   0  0  0  0  0  0  0  0  0  0  0  0
   38.6500   35.9530   16.0490 F   0  0  0  0  0  0  0  0  0  0  0  0
   36.3050   35.5620   15.8980 C   0  0  0  0  0  0  0  0  0  0  0  0
   35.0600   35.4300   16.5210 C   0  0  0  0  0  0  0  0  0  0  0  0
   33.9790   35.1150   15.7680 F   0  0  0  0  0  0  0  0  0  0  0  0
   32.8256   36.3448   26.6260 H   0  0  0  0  0  0  0  0  0  0  0  0
   34.0796   39.0374   22.0650 H   0  0  0  0  0  0  0  0  0  0  0  0
   34.0578   37.6971   20.0151 H   0  0  0  0  0  0  0  0  0  0  0  0
   32.7476   33.6647   23.9738 H   0  0  0  0  0  0  0  0  0  0  0  0
   31.6363   33.1375   22.6647 H   0  0  0  0  0  0  0  0  0  0  0  0
   33.3475   32.5910   22.6647 H   0  0  0  0  0  0  0  0  0  0  0  0
   33.9803   39.0825   26.4102 H   0  0  0  0  0  0  0  0  0  0  0  0
   31.1122   38.4577   26.9585 H   0  0  0  0  0  0  0  0  0  0  0  0
   31.9088   39.6859   28.0089 H   0  0  0  0  0  0  0  0  0  0  0  0
   31.7360   41.0196   26.4141 H   0  0  0  0  0  0  0  0  0  0  0  0
   34.3224   38.9833   28.7110 H   0  0  0  0  0  0  0  0  0  0  0  0
   33.0396   37.7403   28.9484 H   0  0  0  0  0  0  0  0  0  0  0  0
   35.0822   36.7768   29.0734 H   0  0  0  0  0  0  0  0  0  0  0  0
   36.0408   35.8851   19.7697 H   0  0  0  0  0  0  0  0  0  0  0  0
   38.2552   36.1286   18.6462 H   0  0  0  0  0  0  0  0  0  0  0  0
   36.3851   35.4591   14.8058 H   0  0  0  0  0  0  0  0  0  0  0  0
  1 14  1  0
  1  2  1  0
  2  3  2  0
  2 13  1  0
  3  4  1  0
  4  5  2  0
  5 12  1  0
  5  6  1  0
  6  7  2  0
  7  8  1  0
  7 19  1  0
  8 10  1  0
  8  9  2  0
 10 12  1  0
 10 11  1  0
 12 13  2  0
 14 15  1  0
 14 17  1  0
 15 16  1  0
 17 18  1  0
 19 20  1  0
 20 21  2  0
 20 26  1  0
 21 22  1  0
 22 23  2  0
 23 24  1  0
 23 25  1  0
 25 26  2  0
 26 27  1  0
  1 28  1  0
  4 29  1  0
  6 30  1  0
 11 31  1  0
 11 32  1  0
 11 33  1  0
 14 34  1  0
 15 35  1  0
 15 36  1  0
 16 37  1  0
 17 38  1  0
 17 39  1  0
 18 40  1  0
 21 41  1  0
 22 42  1  0
 25 43  1  0
M  END
>  <s_m_entry_id>  (1) 
67

>  <MODEL>  (1) 
4

>  <REMARK>  (1) 
 VINA RESULT:    -7.803      1.351      1.624
 INTER + INTRA:         -10.389
 INTER:                  -9.797
 INTRA:                  -0.592
 UNBOUND:                 0.151
  Name = /scratch/kmzp800/tmpcw7r4w9y/tmptaezudi5.pdb
  8 active torsions:
  status: ('A' for Active; 'I' for Inactive)
    1  A    between atoms: O1_1  and  C1_2
    2  A    between atoms: C1_2  and  C2_3
    3  A    between atoms: C2_3  and  N1_4
    4  A    between atoms: C2_3  and  C17_26
    5  A    between atoms: C7_10  and  O2_11
    6  A    between atoms: O2_11  and  C8_12
    7  A    between atoms: N3_22  and  C15_23
    8  A    between atoms: C17_26  and  O4_27
                            x       y       z     vdW  Elec       q    Type
                         _______ _______ _______ _____ _____    ______ ____

>  <TORSDO>  (1) 
F 7

>  <grid_id>  (1) 
p38-prepared

>  <grid_path>  (1) 
/projects/mai/users/kmzp800_harry/pmx_colab/docking_jobs/p38/vina_docking/input_files/p38_vina.pdbqt

>  <grid_filename>  (1) 
p38_vina.pdbqt

>  <docking_score>  (1) 
-7.803

>  <compound_name>  (1) 
lig_p38a_2aa

>  <index_string>  (1) 
17:0:0

$$$$
