13:0:0
     RDKit          3D

 42 43  0  0  1  0  0  0  0  0999 V2000
   42.5150    8.8890   16.9650 C   0  0  0  0  0  0  0  0  0  0  0  0
   42.9100   10.2200   16.8100 C   0  0  0  0  0  0  0  0  0  0  0  0
   41.9950   11.1900   16.3770 C   0  0  0  0  0  0  0  0  0  0  0  0
   40.6820   10.7960   16.0820 C   0  0  0  0  0  0  0  0  0  0  0  0
   40.2760    9.4620   16.2310 C   0  0  0  0  0  0  0  0  0  0  0  0
   41.2010    8.5130   16.6770 C   0  0  0  0  0  0  0  0  0  0  0  0
   42.4390   12.5910   16.1950 C   0  0  0  0  0  0  0  0  0  0  0  0
   43.3690   13.4260   17.3250 S   0  0  0  0  0  0  0  0  0  0  0  0
   43.4700   14.8700   16.4780 C   0  0  0  0  0  0  0  0  0  0  0  0
   42.7770   14.7290   15.2780 C   0  0  0  0  0  0  0  0  0  0  0  0
   42.1780   13.4540   15.1180 C   0  0  0  0  0  0  0  0  0  0  0  0
   40.9620   13.0210   13.6920 Br  0  0  0  0  0  0  0  0  0  0  0  0
   44.1920   16.0640   16.9430 C   0  0  0  0  0  0  0  0  0  0  0  0
   44.0050   16.4990   18.1090 O   0  0  0  0  0  0  0  0  0  0  0  0
   45.0850   16.7210   16.1060 O   0  0  0  0  0  0  0  0  0  0  0  0
   42.7000   15.7870   14.3600 O   0  0  0  0  0  0  0  0  0  0  0  0
   41.7760   16.8630   14.4550 C   0  0  0  0  0  0  0  0  0  0  0  0
   41.1670   17.1340   13.1220 C   0  0  0  0  0  0  0  0  0  0  0  0
   40.4990   18.1830   12.9380 O   0  0  0  0  0  0  0  0  0  0  0  0
   41.3080   16.2110   12.0950 O   0  0  0  0  0  0  0  0  0  0  0  0
   38.9360    9.0380   15.9440 N   0  0  0  0  0  0  0  0  0  0  0  0
   38.4860    8.3610   14.7650 C   0  0  0  0  0  0  0  0  0  0  0  0
   39.2990    8.0270   13.8600 O   0  0  0  0  0  0  0  0  0  0  0  0
   37.0930    8.0580   14.6300 N   0  0  0  0  0  0  0  0  0  0  0  0
   36.4970    7.3730   13.4860 C   0  0  0  0  0  0  0  0  0  0  0  0
   35.5030    6.3190   13.9430 C   0  0  0  0  0  0  0  0  0  0  0  0
   35.8300    8.3610   12.5480 C   0  0  0  0  0  0  0  0  0  0  0  0
   43.2385    8.1374   17.3137 H   0  0  0  0  0  0  0  0  0  0  0  0
   43.9482   10.5096   17.0296 H   0  0  0  0  0  0  0  0  0  0  0  0
   39.9588   11.5454   15.7280 H   0  0  0  0  0  0  0  0  0  0  0  0
   40.8922    7.4646   16.8017 H   0  0  0  0  0  0  0  0  0  0  0  0
   40.9831   16.5996   15.1705 H   0  0  0  0  0  0  0  0  0  0  0  0
   42.3060   17.7636   14.7986 H   0  0  0  0  0  0  0  0  0  0  0  0
   38.2239    9.2415   16.6599 H   0  0  0  0  0  0  0  0  0  0  0  0
   36.4657    8.3439   15.3953 H   0  0  0  0  0  0  0  0  0  0  0  0
   37.3063    6.8698   12.9366 H   0  0  0  0  0  0  0  0  0  0  0  0
   35.4771    6.2916   15.0424 H   0  0  0  0  0  0  0  0  0  0  0  0
   34.5026    6.5673   13.5588 H   0  0  0  0  0  0  0  0  0  0  0  0
   35.8095    5.3349   13.5588 H   0  0  0  0  0  0  0  0  0  0  0  0
   35.3099    9.1314   13.1363 H   0  0  0  0  0  0  0  0  0  0  0  0
   36.5926    8.8366   11.9137 H   0  0  0  0  0  0  0  0  0  0  0  0
   35.1038    7.8315   11.9137 H   0  0  0  0  0  0  0  0  0  0  0  0
  1  2  2  0
  1  6  1  0
  1 28  1  0
  2  3  1  0
  2 29  1  0
  3  4  2  0
  3  7  1  0
  4  5  1  0
  4 30  1  0
  5  6  2  0
  5 21  1  0
  6 31  1  0
  7  8  1  0
  7 11  2  0
  8  9  1  0
  9 13  1  0
  9 10  2  0
 10 11  1  0
 10 16  1  0
 11 12  1  0
 13 14  1  0
 13 15  2  0
 16 17  1  0
 17 18  1  0
 17 32  1  0
 17 33  1  0
 18 19  1  0
 18 20  2  0
 21 22  1  0
 21 34  1  0
 22 23  2  0
 22 24  1  0
 24 25  1  0
 24 35  1  0
 25 26  1  0
 25 27  1  0
 25 36  1  0
 26 37  1  0
 26 38  1  0
 26 39  1  0
 27 40  1  0
 27 41  1  0
 27 42  1  0
M  CHG  2  14  -1  19  -1
M  END
>  <s_m_entry_id>  (1) 
1230

>  <MODEL>  (1) 
1

>  <REMARK>  (1) 
 VINA RESULT:    -7.703      0.000      0.000
 INTER + INTRA:         -10.673
 INTER:                 -10.214
 INTRA:                  -0.459
 UNBOUND:                 0.182
  Name = /scratch/kmzp800/tmpc4tdy994/tmpvi4rhkj3.pdb
  9 active torsions:
  status: ('A' for Active; 'I' for Inactive)
    1  A    between atoms: C3_3  and  C4_4
    2  A    between atoms: C5_6  and  C6_7
    3  A    between atoms: C7_10  and  O3_11
    4  A    between atoms: O3_11  and  C8_12
    5  A    between atoms: C8_12  and  C9_13
    6  A    between atoms: C12_19  and  N1_20
    7  A    between atoms: N2_23  and  C14_24
    8  A    between atoms: C14_24  and  C15_25
    9  A    between atoms: C14_24  and  C16_26
                            x       y       z     vdW  Elec       q    Type
                         _______ _______ _______ _____ _____    ______ ____

>  <TORSDO>  (1) 
F 7

>  <grid_id>  (1) 
ptp1b-prepared

>  <grid_path>  (1) 
ptp1b_vina.pdbqt

>  <grid_filename>  (1) 
ptp1b_vina.pdbqt

>  <docking_score>  (1) 
-7.703

>  <compound_name>  (1) 
lig_23470

>  <index_string>  (1) 
13:0:0

>  <s_m_Source_Path>  (1) 
/projects/mai/users/kmzp800_harry/pmx_colab/docking_jobs/ptp1b

>  <s_m_Source_File>  (1) 
ptp1b_confs_vina_mcs.sdf

>  <i_m_Source_File_Index>  (1) 
14

$$$$
