7:0:0
     RDKit          3D

 49 51  0  0  1  0  0  0  0  0999 V2000
   42.3650    8.9300   16.8040 C   0  0  0  0  0  0  0  0  0  0  0  0
   41.3530    8.0000   16.5490 C   0  0  0  0  0  0  0  0  0  0  0  0
   40.1280    8.4080   16.0030 C   0  0  0  0  0  0  0  0  0  0  0  0
   39.9450    9.7650   15.7060 C   0  0  0  0  0  0  0  0  0  0  0  0
   40.9540   10.7070   15.9560 C   0  0  0  0  0  0  0  0  0  0  0  0
   42.1630   10.2820   16.5090 C   0  0  0  0  0  0  0  0  0  0  0  0
   39.0380    7.4480   15.7030 C   0  0  0  0  0  0  0  0  0  0  0  0
   37.8590    7.0120   16.8260 S   0  0  0  0  0  0  0  0  0  0  0  0
   37.0240    5.9410   15.8450 C   0  0  0  0  0  0  0  0  0  0  0  0
   37.6460    5.9040   14.6000 C   0  0  0  0  0  0  0  0  0  0  0  0
   38.7930    6.7370   14.5160 C   0  0  0  0  0  0  0  0  0  0  0  0
   39.9840    6.7470   13.0050 Br  0  0  0  0  0  0  0  0  0  0  0  0
   35.8260    5.1910   16.2550 C   0  0  0  0  0  0  0  0  0  0  0  0
   34.6880    5.7190   16.1530 O   0  0  0  0  0  0  0  0  0  0  0  0
   35.9360    3.8990   16.7540 O   0  0  0  0  0  0  0  0  0  0  0  0
   37.1530    5.0900   13.5700 O   0  0  0  0  0  0  0  0  0  0  0  0
   36.6710    5.5770   12.3250 C   0  0  0  0  0  0  0  0  0  0  0  0
   35.2350    5.9550   12.4420 C   0  0  0  0  0  0  0  0  0  0  0  0
   34.4130    5.1490   12.9500 O   0  0  0  0  0  0  0  0  0  0  0  0
   34.8100    7.2120   12.0330 O   0  0  0  0  0  0  0  0  0  0  0  0
   40.7660   12.0960   15.6530 N   0  0  0  0  0  0  0  0  0  0  0  0
   41.6820   12.9120   14.8590 C   0  0  0  0  0  0  0  0  0  0  0  0
   40.9040   13.7350   13.8240 C   0  0  0  0  0  0  0  0  0  0  0  0
   41.8460   14.6420   13.0390 C   0  0  0  0  0  0  0  0  0  0  0  0
   42.6380   15.4340   13.9740 N   0  0  0  0  0  0  0  0  0  0  0  0
   42.4630   16.8560   14.0610 C   0  0  0  0  0  0  0  0  0  0  0  0
   41.6920   17.4500   13.2620 O   0  0  0  0  0  0  0  0  0  0  0  0
   43.1830   17.6550   15.0930 C   0  0  0  0  0  0  0  0  0  0  0  0
   43.4450   14.7070   14.9470 C   0  0  0  0  0  0  0  0  0  0  0  0
   42.5380   13.7990   15.7730 C   0  0  0  0  0  0  0  0  0  0  0  0
   43.3204    8.5983   17.2368 H   0  0  0  0  0  0  0  0  0  0  0  0
   41.5196    6.9373   16.7791 H   0  0  0  0  0  0  0  0  0  0  0  0
   38.9922   10.0980   15.2686 H   0  0  0  0  0  0  0  0  0  0  0  0
   42.9594   11.0127   16.7134 H   0  0  0  0  0  0  0  0  0  0  0  0
   37.2563    6.4601   12.0290 H   0  0  0  0  0  0  0  0  0  0  0  0
   36.7737    4.7871   11.5664 H   0  0  0  0  0  0  0  0  0  0  0  0
   39.9207   12.5534   16.0233 H   0  0  0  0  0  0  0  0  0  0  0  0
   42.3667   12.2512   14.3071 H   0  0  0  0  0  0  0  0  0  0  0  0
   40.3961   13.0520   13.1272 H   0  0  0  0  0  0  0  0  0  0  0  0
   40.1674   14.3601   14.3501 H   0  0  0  0  0  0  0  0  0  0  0  0
   42.5150   14.0284   12.4177 H   0  0  0  0  0  0  0  0  0  0  0  0
   41.2608   15.3109   12.3909 H   0  0  0  0  0  0  0  0  0  0  0  0
   42.8794   17.3181   16.0952 H   0  0  0  0  0  0  0  0  0  0  0  0
   44.2677   17.5170   14.9727 H   0  0  0  0  0  0  0  0  0  0  0  0
   42.9332   18.7195   14.9727 H   0  0  0  0  0  0  0  0  0  0  0  0
   44.1950   14.0979   14.4212 H   0  0  0  0  0  0  0  0  0  0  0  0
   43.9563   15.4205   15.6099 H   0  0  0  0  0  0  0  0  0  0  0  0
   41.8772   14.4191   16.3965 H   0  0  0  0  0  0  0  0  0  0  0  0
   43.1649   13.1539   16.4062 H   0  0  0  0  0  0  0  0  0  0  0  0
  1  2  2  0
  1  6  1  0
  1 31  1  0
  2  3  1  0
  2 32  1  0
  3  4  2  0
  3  7  1  0
  4  5  1  0
  4 33  1  0
  5  6  2  0
  5 21  1  0
  6 34  1  0
  7  8  1  0
  7 11  2  0
  8  9  1  0
  9 13  1  0
  9 10  2  0
 10 11  1  0
 10 16  1  0
 11 12  1  0
 13 15  1  0
 13 14  2  0
 16 17  1  0
 17 18  1  0
 17 35  1  0
 17 36  1  0
 18 19  1  0
 18 20  2  0
 21 22  1  0
 21 37  1  0
 22 30  1  0
 22 23  1  0
 22 38  1  0
 23 24  1  0
 23 39  1  0
 23 40  1  0
 24 25  1  0
 24 41  1  0
 24 42  1  0
 25 26  1  0
 25 29  1  0
 26 28  1  0
 26 27  2  0
 28 43  1  0
 28 44  1  0
 28 45  1  0
 29 30  1  0
 29 46  1  0
 29 47  1  0
 30 48  1  0
 30 49  1  0
M  CHG  2  15  -1  19  -1
M  END
>  <s_m_entry_id>  (1) 
1353

>  <MODEL>  (1) 
1

>  <REMARK>  (1) 
 VINA RESULT:    -7.096      0.000      0.000
 INTER + INTRA:         -11.058
 INTER:                  -9.999
 INTRA:                  -1.059
 UNBOUND:                -1.059
  Name = /scratch/kmzp800/tmp1rx3_b3q/tmp91270q39.pdb
  8 active torsions:
  status: ('A' for Active; 'I' for Inactive)
    1  A    between atoms: C3_3  and  C4_4
    2  A    between atoms: C5_6  and  C6_7
    3  A    between atoms: C7_10  and  O3_11
    4  A    between atoms: O3_11  and  C8_12
    5  A    between atoms: C8_12  and  C9_13
    6  A    between atoms: C12_19  and  N1_20
    7  A    between atoms: N1_20  and  C13_21
    8  A    between atoms: C16_25  and  C17_27
                            x       y       z     vdW  Elec       q    Type
                         _______ _______ _______ _____ _____    ______ ____

>  <TORSDO>  (1) 
F 7

>  <grid_id>  (1) 
ptp1b-prepared

>  <grid_path>  (1) 
ptp1b_vina.pdbqt

>  <grid_filename>  (1) 
ptp1b_vina.pdbqt

>  <docking_score>  (1) 
-7.096

>  <compound_name>  (1) 
lig_23479

>  <index_string>  (1) 
7:0:0

>  <s_m_Source_Path>  (1) 
/projects/mai/users/kmzp800_harry/pmx_colab/docking_jobs/ptp1b/vina_prep

>  <s_m_Source_File>  (1) 
ptp1b_vina_naive_confs.sdf

>  <i_m_Source_File_Index>  (1) 
8

$$$$
