8:0:0
     RDKit          3D

 41 43  0  0  1  0  0  0  0  0999 V2000
   40.3930    9.4600   15.5730 C   0  0  0  0  0  0  0  0  0  0  0  0
   41.2000    8.6300   16.3570 C   0  0  0  0  0  0  0  0  0  0  0  0
   42.3560    9.1310   16.9570 C   0  0  0  0  0  0  0  0  0  0  0  0
   42.7140   10.4690   16.7710 C   0  0  0  0  0  0  0  0  0  0  0  0
   41.9260   11.3160   15.9800 C   0  0  0  0  0  0  0  0  0  0  0  0
   40.7640   10.8010   15.3900 C   0  0  0  0  0  0  0  0  0  0  0  0
   42.3210   12.7350   15.8100 C   0  0  0  0  0  0  0  0  0  0  0  0
   43.3310   13.5610   16.8770 S   0  0  0  0  0  0  0  0  0  0  0  0
   43.3300   15.0380   16.0800 C   0  0  0  0  0  0  0  0  0  0  0  0
   42.5110   14.9120   14.9480 C   0  0  0  0  0  0  0  0  0  0  0  0
   41.9690   13.6260   14.7860 C   0  0  0  0  0  0  0  0  0  0  0  0
   40.8720   13.2060   13.2700 Br  0  0  0  0  0  0  0  0  0  0  0  0
   44.1750   16.1730   16.4850 C   0  0  0  0  0  0  0  0  0  0  0  0
   44.7070   16.9240   15.6280 O   0  0  0  0  0  0  0  0  0  0  0  0
   44.4430   16.3840   17.8320 O   0  0  0  0  0  0  0  0  0  0  0  0
   42.2100   15.9380   14.0430 O   0  0  0  0  0  0  0  0  0  0  0  0
   41.1410   16.8590   14.2280 C   0  0  0  0  0  0  0  0  0  0  0  0
   40.4490   17.1160   12.9340 C   0  0  0  0  0  0  0  0  0  0  0  0
   39.2050   17.3040   12.9130 O   0  0  0  0  0  0  0  0  0  0  0  0
   41.1820   17.1930   11.7580 O   0  0  0  0  0  0  0  0  0  0  0  0
   39.1530    7.8260   14.0310 C   0  0  0  0  0  0  0  0  0  0  0  0
   40.2090    7.3070   13.5800 O   0  0  0  0  0  0  0  0  0  0  0  0
   39.2130    8.9060   14.9740 N   0  0  0  0  0  0  0  0  0  0  0  0
   35.3470    6.3850   12.7030 C   0  0  0  0  0  0  0  0  0  0  0  0
   36.3610    5.4800   13.0300 C   0  0  0  0  0  0  0  0  0  0  0  0
   37.6050    5.9510   13.4620 C   0  0  0  0  0  0  0  0  0  0  0  0
   37.8430    7.3300   13.5730 C   0  0  0  0  0  0  0  0  0  0  0  0
   36.8190    8.2300   13.2430 C   0  0  0  0  0  0  0  0  0  0  0  0
   35.5760    7.7590   12.8100 C   0  0  0  0  0  0  0  0  0  0  0  0
   40.9220    7.5756   16.5017 H   0  0  0  0  0  0  0  0  0  0  0  0
   42.9846    8.4736   17.5756 H   0  0  0  0  0  0  0  0  0  0  0  0
   43.6232   10.8612   17.2501 H   0  0  0  0  0  0  0  0  0  0  0  0
   40.1328   11.4581   14.7738 H   0  0  0  0  0  0  0  0  0  0  0  0
   40.4217   16.4401   14.9471 H   0  0  0  0  0  0  0  0  0  0  0  0
   41.5479   17.8068   14.6101 H   0  0  0  0  0  0  0  0  0  0  0  0
   38.3146    9.3277   15.2497 H   0  0  0  0  0  0  0  0  0  0  0  0
   34.3689    6.0153   12.3615 H   0  0  0  0  0  0  0  0  0  0  0  0
   36.1806    4.3980   12.9476 H   0  0  0  0  0  0  0  0  0  0  0  0
   38.4018    5.2365   13.7163 H   0  0  0  0  0  0  0  0  0  0  0  0
   36.9950    9.3127   13.3254 H   0  0  0  0  0  0  0  0  0  0  0  0
   34.7776    8.4708   12.5533 H   0  0  0  0  0  0  0  0  0  0  0  0
  1  2  2  0
  1  6  1  0
  1 23  1  0
  2  3  1  0
  2 30  1  0
  3  4  2  0
  3 31  1  0
  4  5  1  0
  4 32  1  0
  5  6  2  0
  5  7  1  0
  6 33  1  0
  7  8  1  0
  7 11  2  0
  8  9  1  0
  9 13  1  0
  9 10  2  0
 10 11  1  0
 10 16  1  0
 11 12  1  0
 13 15  1  0
 13 14  2  0
 16 17  1  0
 17 18  1  0
 17 34  1  0
 17 35  1  0
 18 19  1  0
 18 20  2  0
 21 23  1  0
 21 22  2  0
 21 27  1  0
 23 36  1  0
 24 29  2  0
 24 25  1  0
 24 37  1  0
 25 26  2  0
 25 38  1  0
 26 27  1  0
 26 39  1  0
 27 28  2  0
 28 29  1  0
 28 40  1  0
 29 41  1  0
M  CHG  2  15  -1  19  -1
M  END
>  <s_m_entry_id>  (1) 
1225

>  <MODEL>  (1) 
1

>  <REMARK>  (1) 
 VINA RESULT:   -24.688      0.000      0.000
 INTER + INTRA:         -12.030
 INTER:                 -11.667
 INTRA:                  -0.363
 UNBOUND:                22.761
  Name = /scratch/kmzp800/tmpm7gpx9qd/tmpqp2hbyj3.pdb
  7 active torsions:
  status: ('A' for Active; 'I' for Inactive)
    1  A    between atoms: C4_4  and  C5_5
    2  A    between atoms: N1_7  and  C6_8
    3  A    between atoms: C10_12  and  C11_13
    4  A    between atoms: C12_15  and  C13_16
    5  A    between atoms: C14_19  and  O4_20
    6  A    between atoms: O4_20  and  C15_21
    7  A    between atoms: C15_21  and  C16_22
                            x       y       z     vdW  Elec       q    Type
                         _______ _______ _______ _____ _____    ______ ____

>  <TORSDO>  (1) 
F 7

>  <grid_id>  (1) 
ptp1b-prepared

>  <grid_path>  (1) 
ptp1b_vina.pdbqt

>  <grid_filename>  (1) 
ptp1b_vina.pdbqt

>  <docking_score>  (1) 
-24.688

>  <compound_name>  (1) 
lig_23469

>  <index_string>  (1) 
8:0:0

>  <s_m_Source_Path>  (1) 
/projects/mai/users/kmzp800_harry/pmx_colab/docking_jobs/ptp1b

>  <s_m_Source_File>  (1) 
ptp1b_confs_vina_mcs.sdf

>  <i_m_Source_File_Index>  (1) 
9

$$$$
