25:0:0
     RDKit          3D

 64 68  0  0  1  0  0  0  0  0999 V2000
   38.9480   36.1025   16.2999 F   0  0  0  0  0  0  0  0  0  0  0  0
   37.7947   35.9522   16.9810 C   0  0  0  0  0  0  0  0  0  0  0  0
   37.7759   36.1133   18.3795 C   0  0  0  0  0  0  0  0  0  0  0  0
   36.5753   35.9473   19.0937 C   0  0  0  0  0  0  0  0  0  0  0  0
   36.6108   36.0257   20.4444 F   0  0  0  0  0  0  0  0  0  0  0  0
   35.3670   35.6543   18.4014 C   0  0  0  0  0  0  0  0  0  0  0  0
   35.3994   35.5316   16.9982 C   0  0  0  0  0  0  0  0  0  0  0  0
   36.6068   35.6690   16.2887 C   0  0  0  0  0  0  0  0  0  0  0  0
   34.1566   35.4201   19.0195 O   0  0  0  0  0  0  0  0  0  0  0  0
   33.8600   36.0238   20.2145 C   0  0  0  0  0  0  0  0  0  0  0  0
   34.0440   37.3480   20.3780 C   0  0  0  0  0  0  0  0  0  0  0  0
   33.3540   35.1710   21.2959 C   0  0  0  0  0  0  0  0  0  0  0  0
   33.2712   33.9507   21.1457 O   0  0  0  0  0  0  0  0  0  0  0  0
   33.0077   35.7924   22.4701 N   0  0  0  0  0  0  0  0  0  0  0  0
   32.3076   35.0322   23.5495 C   0  0  0  0  0  0  0  0  0  0  0  0
   30.9650   34.3978   23.1258 C   0  0  0  0  0  0  0  0  0  0  0  0
   30.2433   33.7891   24.3390 C   0  0  0  0  0  0  0  0  0  0  0  0
   31.1030   32.8290   25.0580 N   0  0  0  0  0  0  0  0  0  0  0  0
   32.4420   33.3408   25.4304 C   0  0  0  0  0  0  0  0  0  0  0  0
   33.1804   33.9584   24.2274 C   0  0  0  0  0  0  0  0  0  0  0  0
   30.8400   31.1242   24.8457 S   0  0  0  0  0  0  0  0  0  0  0  0
   31.6750   30.4116   25.8271 O   0  0  0  0  0  0  0  0  0  0  0  0
   29.3870   30.8951   24.8163 O   0  0  0  0  0  0  0  0  0  0  0  0
   31.4994   30.7827   23.1707 C   0  0  0  0  0  0  0  0  0  0  0  0
   33.3542   37.1728   22.7316 C   0  0  0  0  0  0  0  0  0  0  0  0
   33.8458   37.9650   21.6723 C   0  0  0  0  0  0  0  0  0  0  0  0
   33.2519   37.7322   23.9565 N   0  0  0  0  0  0  0  0  0  0  0  0
   33.6003   39.0066   24.1220 C   0  0  0  0  0  0  0  0  0  0  0  0
   34.0791   39.8237   23.1849 N   0  0  0  0  0  0  0  0  0  0  0  0
   34.2033   39.3015   21.9485 C   0  0  0  0  0  0  0  0  0  0  0  0
   33.4526   39.5488   25.3805 N   0  0  0  0  0  0  0  0  0  0  0  0
   32.9023   38.8468   26.5366 C   0  0  0  0  0  0  0  0  0  0  0  0
   33.1762   39.6287   27.8282 C   0  0  0  0  0  0  0  0  0  0  0  0
   32.5457   38.9186   29.0361 C   0  0  0  0  0  0  0  0  0  0  0  0
   31.1484   38.7482   28.8279 O   0  0  0  0  0  0  0  0  0  0  0  0
   30.8379   37.9471   27.6930 C   0  0  0  0  0  0  0  0  0  0  0  0
   31.3855   38.6070   26.4169 C   0  0  0  0  0  0  0  0  0  0  0  0
   38.6899   36.3480   18.9055 H   0  0  0  0  0  0  0  0  0  0  0  0
   34.4882   35.3037   16.4633 H   0  0  0  0  0  0  0  0  0  0  0  0
   36.6215   35.5664   15.2142 H   0  0  0  0  0  0  0  0  0  0  0  0
   34.4078   37.9668   19.5728 H   0  0  0  0  0  0  0  0  0  0  0  0
   32.0231   35.7219   24.3431 H   0  0  0  0  0  0  0  0  0  0  0  0
   30.3172   35.1525   22.6898 H   0  0  0  0  0  0  0  0  0  0  0  0
   31.1018   33.6334   22.3628 H   0  0  0  0  0  0  0  0  0  0  0  0
   29.9476   34.5789   25.0297 H   0  0  0  0  0  0  0  0  0  0  0  0
   29.3204   33.3049   24.0197 H   0  0  0  0  0  0  0  0  0  0  0  0
   32.3129   34.0974   26.2054 H   0  0  0  0  0  0  0  0  0  0  0  0
   33.0372   32.5482   25.8798 H   0  0  0  0  0  0  0  0  0  0  0  0
   33.4480   33.1684   23.5285 H   0  0  0  0  0  0  0  0  0  0  0  0
   34.1177   34.3999   24.5658 H   0  0  0  0  0  0  0  0  0  0  0  0
   31.3961   29.7204   22.9586 H   0  0  0  0  0  0  0  0  0  0  0  0
   30.9416   31.3539   22.4303 H   0  0  0  0  0  0  0  0  0  0  0  0
   32.5515   31.0556   23.1439 H   0  0  0  0  0  0  0  0  0  0  0  0
   34.6073   39.9449   21.1811 H   0  0  0  0  0  0  0  0  0  0  0  0
   33.6995   40.5297   25.4892 H   0  0  0  0  0  0  0  0  0  0  0  0
   33.4028   37.8798   26.6111 H   0  0  0  0  0  0  0  0  0  0  0  0
   34.2510   39.7396   27.9835 H   0  0  0  0  0  0  0  0  0  0  0  0
   32.7658   40.6380   27.7508 H   0  0  0  0  0  0  0  0  0  0  0  0
   33.0171   37.9511   29.2115 H   0  0  0  0  0  0  0  0  0  0  0  0
   32.6930   39.5127   29.9376 H   0  0  0  0  0  0  0  0  0  0  0  0
   31.2489   36.9446   27.8189 H   0  0  0  0  0  0  0  0  0  0  0  0
   29.7531   37.8419   27.6280 H   0  0  0  0  0  0  0  0  0  0  0  0
   30.8776   39.5549   26.2473 H   0  0  0  0  0  0  0  0  0  0  0  0
   31.1515   37.9762   25.5598 H   0  0  0  0  0  0  0  0  0  0  0  0
  1  2  1  0
  2  8  2  0
  2  3  1  0
  3  4  2  0
  3 38  1  0
  4  5  1  0
  4  6  1  0
  6  7  2  0
  6  9  1  0
  7  8  1  0
  7 39  1  0
  8 40  1  0
  9 10  1  0
 10 11  2  0
 10 12  1  0
 11 26  1  0
 11 41  1  0
 12 13  2  0
 12 14  1  0
 14 15  1  0
 14 25  1  0
 15 20  1  0
 15 16  1  0
 15 42  1  0
 16 17  1  0
 16 43  1  0
 16 44  1  0
 17 18  1  0
 17 45  1  0
 17 46  1  0
 18 19  1  0
 18 21  1  0
 19 20  1  0
 19 47  1  0
 19 48  1  0
 20 49  1  0
 20 50  1  0
 21 22  2  0
 21 23  2  0
 21 24  1  0
 24 51  1  0
 24 52  1  0
 24 53  1  0
 25 26  2  0
 25 27  1  0
 26 30  1  0
 27 28  2  0
 28 29  1  0
 28 31  1  0
 29 30  2  0
 30 54  1  0
 31 32  1  0
 31 55  1  0
 32 37  1  0
 32 33  1  0
 32 56  1  0
 33 34  1  0
 33 57  1  0
 33 58  1  0
 34 35  1  0
 34 59  1  0
 34 60  1  0
 35 36  1  0
 36 37  1  0
 36 61  1  0
 36 62  1  0
 37 63  1  0
 37 64  1  0
M  END
>  <s_m_entry_id>  (1) 
741

>  <i_f3d_flags>  (1) 
0

>  <r_lp_tautomer_probability>  (1) 
1

>  <r_epik_Ionization_Penalty>  (1) 
  0.0000

>  <r_epik_State_Penalty>  (1) 
  0.0000

>  <i_epik_Tot_Q>  (1) 
0

>  <s_m_job_name>  (1) 
glide-dock_SP_p38_all_ligs_no_cons_10_poses

>  <r_i_docking_score>  (1) 
-7.98692595902531

>  <r_i_glide_gscore>  (1) 
-7.98692595902531

>  <r_i_glide_emodel>  (1) 
-80.1291042954735

>  <index_string>  (1) 
25:0:0

$$$$
