12:0:0
     RDKit          3D

 37 39  0  0  1  0  0  0  0  0999 V2000
  -14.6396  -14.6454  -27.4639 C   0  0  0  0  0  0  0  0  0  0  0  0
  -15.1851  -15.5506  -26.5270 C   0  0  0  0  0  0  0  0  0  0  0  0
  -14.8482  -13.2682  -27.3552 C   0  0  0  0  0  0  0  0  0  0  0  0
  -15.9528  -15.0310  -25.4630 C   0  0  0  0  0  0  0  0  0  0  0  0
  -14.9013  -16.9297  -26.6208 N   0  0  0  0  0  0  0  0  0  0  0  0
  -15.6480  -12.7727  -26.3276 C   0  0  0  0  0  0  0  0  0  0  0  0
  -16.2032  -13.6439  -25.3706 C   0  0  0  0  0  0  0  0  0  0  0  0
  -16.4604  -16.0024  -24.4486 C   0  0  0  0  0  0  0  0  0  0  0  0
  -16.0482  -17.2650  -24.6019 N   0  0  0  0  0  0  0  0  0  0  0  0
  -17.2067  -15.6767  -23.5386 O   0  0  0  0  0  0  0  0  0  0  0  0
  -15.3181  -17.7459  -25.6909 C   0  0  0  0  0  0  0  0  0  0  0  0
  -15.0735  -19.2125  -25.7876 C   0  0  0  0  0  0  0  0  0  0  0  0
  -14.8482  -19.8064  -27.0427 C   0  0  0  0  0  0  0  0  0  0  0  0
  -14.5477  -21.1727  -27.1386 C   0  0  0  0  0  0  0  0  0  0  0  0
  -14.4329  -21.9693  -25.9829 C   0  0  0  0  0  0  0  0  0  0  0  0
  -14.7397  -21.3918  -24.7291 C   0  0  0  0  0  0  0  0  0  0  0  0
  -15.0583  -20.0241  -24.6321 C   0  0  0  0  0  0  0  0  0  0  0  0
  -13.9487  -23.4122  -26.1060 C   0  0  0  0  0  0  0  0  0  0  0  0
  -13.0910  -23.5899  -27.2130 O   0  0  0  0  0  0  0  0  0  0  0  0
  -15.1456  -24.3484  -26.3386 C   0  0  0  0  0  0  0  0  0  0  0  0
  -13.0736  -23.8176  -24.9079 C   0  0  0  0  0  0  0  0  0  0  0  0
  -13.6482  -15.1727  -28.7386 Cl  0  0  0  0  0  0  0  0  0  0  0  0
  -14.4169  -12.5888  -28.0773 H   0  0  0  0  0  0  0  0  0  0  0  0
  -15.8402  -11.7138  -26.3386 H   0  0  0  0  0  0  0  0  0  0  0  0
  -16.8151  -13.2452  -24.5749 H   0  0  0  0  0  0  0  0  0  0  0  0
  -16.4125  -17.9363  -23.9386 H   0  0  0  0  0  0  0  0  0  0  0  0
  -14.8482  -19.2110  -27.9438 H   0  0  0  0  0  0  0  0  0  0  0  0
  -14.3315  -21.5727  -28.1119 H   0  0  0  0  0  0  0  0  0  0  0  0
  -14.6996  -21.9752  -23.8222 H   0  0  0  0  0  0  0  0  0  0  0  0
  -15.2584  -19.6081  -23.6562 H   0  0  0  0  0  0  0  0  0  0  0  0
  -12.7658  -24.4771  -27.1980 H   0  0  0  0  0  0  0  0  0  0  0  0
  -15.8376  -24.3152  -25.4964 H   0  0  0  0  0  0  0  0  0  0  0  0
  -14.8324  -25.3845  -26.4649 H   0  0  0  0  0  0  0  0  0  0  0  0
  -15.7025  -24.0635  -27.2322 H   0  0  0  0  0  0  0  0  0  0  0  0
  -13.6482  -23.9066  -23.9865 H   0  0  0  0  0  0  0  0  0  0  0  0
  -12.5740  -24.7727  -25.0662 H   0  0  0  0  0  0  0  0  0  0  0  0
  -12.2897  -23.0810  -24.7386 H   0  0  0  0  0  0  0  0  0  0  0  0
  1  2  2  0
  1  3  1  0
  1 22  1  0
  2  4  1  0
  2  5  1  0
  3  6  2  0
  3 23  1  0
  4  7  2  0
  4  8  1  0
  5 11  2  0
  6  7  1  0
  6 24  1  0
  7 25  1  0
  8  9  1  0
  8 10  2  0
  9 11  1  0
  9 26  1  0
 11 12  1  0
 12 13  2  0
 12 17  1  0
 13 14  1  0
 13 27  1  0
 14 15  2  0
 14 28  1  0
 15 16  1  0
 15 18  1  0
 16 17  2  0
 16 29  1  0
 17 30  1  0
 18 19  1  0
 18 20  1  0
 18 21  1  0
 19 31  1  0
 20 32  1  0
 20 33  1  0
 20 34  1  0
 21 35  1  0
 21 36  1  0
 21 37  1  0
M  END
>  <s_m_entry_id>  (1) 
427

>  <Name>  (1) 
5g

>  <IC50[nM]>  (1) 
12

>  <s_m_Source_Path>  (1) 
/projects/mai/users/kmzp800_harry/pmx_colab/docking_jobs/tnks2

>  <s_m_Source_File>  (1) 
tnks2_lig.sdf

>  <i_m_Source_File_Index>  (1) 
13

>  <s_m_job_name>  (1) 
glide-dock_SP_tnks2_no_cons

>  <r_i_docking_score>  (1) 
-10.675438722725

>  <r_i_glide_gscore>  (1) 
-10.675438722725

>  <r_i_glide_emodel>  (1) 
-60.611020228974

>  <index_string>  (1) 
12:0:0

$$$$
