7:0:0
     RDKit          3D

 58 63  0  0  1  0  0  0  0  0999 V2000
   -7.0263   -4.1730   16.0820 C   0  0  0  0  0  0  0  0  0  0  0  0
   -6.4212   -2.7590   16.0283 C   0  0  0  0  0  0  0  0  0  0  0  0
   -7.4713   -1.8590   16.3357 O   0  0  0  0  0  0  0  0  0  0  0  0
   -5.2981   -2.5581   17.0691 C   0  0  0  0  0  0  0  0  0  0  0  0
   -4.0015   -3.2993   16.6937 C   0  0  0  0  0  0  0  0  0  0  0  0
   -3.6011   -2.9532   15.3316 N   0  0  0  0  0  0  0  0  0  0  0  0
   -4.5915   -3.1459   14.2764 C   0  0  0  0  0  0  0  0  0  0  0  0
   -5.8891   -2.3947   14.6250 C   0  0  0  0  0  0  0  0  0  0  0  0
   -2.3289   -2.4093   15.0686 C   0  0  0  0  0  0  0  0  0  0  0  0
   -1.1964   -2.8490   15.7906 C   0  0  0  0  0  0  0  0  0  0  0  0
    0.0760   -2.3109   15.5271 C   0  0  0  0  0  0  0  0  0  0  0  0
    0.2535   -1.3170   14.5458 C   0  0  0  0  0  0  0  0  0  0  0  0
    1.5640   -0.8570   14.3262 N   0  0  0  0  0  0  0  0  0  0  0  0
    2.0454    0.3645   13.8266 C   0  0  0  0  0  0  0  0  0  0  0  0
    1.2271    1.2341   13.3060 N   0  0  0  0  0  0  0  0  0  0  0  0
    1.7057    2.4585   12.8992 C   0  0  0  0  0  0  0  0  0  0  0  0
    3.0335    2.8005   12.9709 C   0  0  0  0  0  0  0  0  0  0  0  0
    3.8807    1.9041   13.5359 N   0  0  0  0  0  0  0  0  0  0  0  0
    5.2302    1.9691   13.8186 C   0  0  0  0  0  0  0  0  0  0  0  0
    5.5469    0.8132   14.4790 C   0  0  0  0  0  0  0  0  0  0  0  0
    4.4271    0.0041   14.6171 N   0  0  0  0  0  0  0  0  0  0  0  0
    3.4326    0.6479   14.0005 C   0  0  0  0  0  0  0  0  0  0  0  0
    0.6919    3.4252   12.4356 C   0  0  0  0  0  0  0  0  0  0  0  0
   -0.4130    3.0191   11.6508 C   0  0  0  0  0  0  0  0  0  0  0  0
   -1.3716    3.9482   11.1943 C   0  0  0  0  0  0  0  0  0  0  0  0
   -1.2559    5.3190   11.5180 C   0  0  0  0  0  0  0  0  0  0  0  0
   -1.9774    6.5281   11.2559 C   0  0  0  0  0  0  0  0  0  0  0  0
   -1.4053    7.5666   11.8173 N   0  0  0  0  0  0  0  0  0  0  0  0
   -0.3153    7.0775   12.4636 N   0  0  0  0  0  0  0  0  0  0  0  0
   -0.1507    5.7115   12.3177 C   0  0  0  0  0  0  0  0  0  0  0  0
    0.8099    4.7930   12.7709 C   0  0  0  0  0  0  0  0  0  0  0  0
   -0.8768   -0.8786   13.8174 C   0  0  0  0  0  0  0  0  0  0  0  0
   -2.1515   -1.4150   14.0810 C   0  0  0  0  0  0  0  0  0  0  0  0
   -6.2848   -4.9395   15.8608 H   0  0  0  0  0  0  0  0  0  0  0  0
   -7.8385   -4.2842   15.3624 H   0  0  0  0  0  0  0  0  0  0  0  0
   -7.4328   -4.3924   17.0703 H   0  0  0  0  0  0  0  0  0  0  0  0
   -7.7905   -2.0687   17.2045 H   0  0  0  0  0  0  0  0  0  0  0  0
   -5.0669   -1.4950   17.1569 H   0  0  0  0  0  0  0  0  0  0  0  0
   -5.6286   -2.8760   18.0586 H   0  0  0  0  0  0  0  0  0  0  0  0
   -3.2293   -3.0410   17.4170 H   0  0  0  0  0  0  0  0  0  0  0  0
   -4.1411   -4.3790   16.7598 H   0  0  0  0  0  0  0  0  0  0  0  0
   -4.2192   -2.8355   13.3000 H   0  0  0  0  0  0  0  0  0  0  0  0
   -4.7912   -4.2132   14.1899 H   0  0  0  0  0  0  0  0  0  0  0  0
   -6.6490   -2.5829   13.8669 H   0  0  0  0  0  0  0  0  0  0  0  0
   -5.6794   -1.3250   14.6036 H   0  0  0  0  0  0  0  0  0  0  0  0
   -1.2849   -3.6154   16.5471 H   0  0  0  0  0  0  0  0  0  0  0  0
    0.9196   -2.6743   16.0970 H   0  0  0  0  0  0  0  0  0  0  0  0
    2.2859   -1.3842   14.7980 H   0  0  0  0  0  0  0  0  0  0  0  0
    3.4389    3.7566   12.6607 H   0  0  0  0  0  0  0  0  0  0  0  0
    5.8121    2.8375   13.5471 H   0  0  0  0  0  0  0  0  0  0  0  0
    6.5026    0.5028   14.8796 H   0  0  0  0  0  0  0  0  0  0  0  0
   -0.5227    1.9772   11.3858 H   0  0  0  0  0  0  0  0  0  0  0  0
   -2.1972    3.6106   10.5855 H   0  0  0  0  0  0  0  0  0  0  0  0
   -2.8786    6.6653   10.6774 H   0  0  0  0  0  0  0  0  0  0  0  0
    0.3083    7.6942   12.9770 H   0  0  0  0  0  0  0  0  0  0  0  0
    1.6281    5.1418   13.3836 H   0  0  0  0  0  0  0  0  0  0  0  0
   -0.7911   -0.1469   13.0315 H   0  0  0  0  0  0  0  0  0  0  0  0
   -2.9884   -1.0509   13.5075 H   0  0  0  0  0  0  0  0  0  0  0  0
  1  2  1  0
  1 34  1  0
  1 35  1  0
  1 36  1  0
  2  3  1  0
  2  4  1  0
  2  8  1  0
  3 37  1  0
  4  5  1  0
  4 38  1  0
  4 39  1  0
  5  6  1  0
  5 40  1  0
  5 41  1  0
  6  7  1  0
  6  9  1  0
  7  8  1  0
  7 42  1  0
  7 43  1  0
  8 44  1  0
  8 45  1  0
  9 10  2  0
  9 33  1  0
 10 11  1  0
 10 46  1  0
 11 12  2  0
 11 47  1  0
 12 13  1  0
 12 32  1  0
 13 14  1  0
 13 48  1  0
 14 15  2  0
 14 22  1  0
 15 16  1  0
 16 17  2  0
 16 23  1  0
 17 18  1  0
 17 49  1  0
 18 19  1  0
 18 22  1  0
 19 20  2  0
 19 50  1  0
 20 21  1  0
 20 51  1  0
 21 22  2  0
 23 24  2  0
 23 31  1  0
 24 25  1  0
 24 52  1  0
 25 26  2  0
 25 53  1  0
 26 27  1  0
 26 30  1  0
 27 28  2  0
 27 54  1  0
 28 29  1  0
 29 30  1  0
 29 55  1  0
 30 31  2  0
 31 56  1  0
 32 33  2  0
 32 57  1  0
 33 58  1  0
M  END
>  <s_m_entry_id>  (1) 
687

>  <IC50[nM]>  (1) 
1.4

>  <s_m_Source_Path>  (1) 
/projects/mai/users/kmzp800_harry/pmx_colab/docking_jobs/syk

>  <s_m_Source_File>  (1) 
tnks2_lig.sdf

>  <i_m_Source_File_Index>  (1) 
8

>  <s_m_job_name>  (1) 
glide-dock_SP_tnks2_no_const

>  <r_i_docking_score>  (1) 
-6.53468617535881

>  <r_i_glide_gscore>  (1) 
-6.53468617535881

>  <r_i_glide_emodel>  (1) 
-70.6435609707472

>  <index_string>  (1) 
7:0:0

$$$$
