14:0:0
     RDKit          3D

 49 52  0  0  1  0  0  0  0  0999 V2000
  -14.4258  -14.7846  -27.6604 C   0  0  0  0  0  0  0  0  0  0  0  0
  -15.0258  -15.6169  -26.6823 C   0  0  0  0  0  0  0  0  0  0  0  0
  -14.5164  -13.3978  -27.5477 C   0  0  0  0  0  0  0  0  0  0  0  0
  -15.7574  -15.0306  -25.6169 C   0  0  0  0  0  0  0  0  0  0  0  0
  -14.8487  -17.0108  -26.7389 N   0  0  0  0  0  0  0  0  0  0  0  0
  -15.2322  -12.8409  -26.5004 C   0  0  0  0  0  0  0  0  0  0  0  0
  -15.8753  -13.6312  -25.5274 C   0  0  0  0  0  0  0  0  0  0  0  0
  -16.3761  -15.9492  -24.6073 C   0  0  0  0  0  0  0  0  0  0  0  0
  -16.1252  -17.2430  -24.8114 N   0  0  0  0  0  0  0  0  0  0  0  0
  -17.0509  -15.5732  -23.6543 O   0  0  0  0  0  0  0  0  0  0  0  0
  -15.3625  -17.7865  -25.8374 C   0  0  0  0  0  0  0  0  0  0  0  0
  -15.1953  -19.2604  -25.9278 C   0  0  0  0  0  0  0  0  0  0  0  0
  -14.7809  -19.8406  -27.1380 C   0  0  0  0  0  0  0  0  0  0  0  0
  -14.5688  -21.2210  -27.2337 C   0  0  0  0  0  0  0  0  0  0  0  0
  -14.7715  -22.0626  -26.1197 C   0  0  0  0  0  0  0  0  0  0  0  0
  -15.2202  -21.4852  -24.9072 C   0  0  0  0  0  0  0  0  0  0  0  0
  -15.4458  -20.0942  -24.8183 C   0  0  0  0  0  0  0  0  0  0  0  0
  -13.6523  -15.3291  -28.8349 C   0  0  0  0  0  0  0  0  0  0  0  0
  -15.3326  -11.5131  -26.4881 F   0  0  0  0  0  0  0  0  0  0  0  0
  -14.4879  -23.5533  -26.2195 C   0  0  0  0  0  0  0  0  0  0  0  0
  -15.4846  -24.2630  -27.1536 C   0  0  0  0  0  0  0  0  0  0  0  0
  -15.1542  -25.7536  -27.3166 C   0  0  0  0  0  0  0  0  0  0  0  0
  -13.7618  -25.9421  -27.7965 N   0  0  0  0  0  0  0  0  0  0  0  0
  -12.7584  -25.3204  -26.8907 C   0  0  0  0  0  0  0  0  0  0  0  0
  -13.0411  -23.8228  -26.6803 C   0  0  0  0  0  0  0  0  0  0  0  0
  -13.4497  -27.3598  -28.0834 C   0  0  0  0  0  0  0  0  0  0  0  0
  -14.0373  -12.7500  -28.2636 H   0  0  0  0  0  0  0  0  0  0  0  0
  -16.4316  -13.1694  -24.7275 H   0  0  0  0  0  0  0  0  0  0  0  0
  -16.5643  -17.8785  -24.1587 H   0  0  0  0  0  0  0  0  0  0  0  0
  -14.5784  -19.2295  -28.0093 H   0  0  0  0  0  0  0  0  0  0  0  0
  -14.2108  -21.5713  -28.1797 H   0  0  0  0  0  0  0  0  0  0  0  0
  -15.3948  -22.1002  -24.0368 H   0  0  0  0  0  0  0  0  0  0  0  0
  -15.7695  -19.6754  -23.8777 H   0  0  0  0  0  0  0  0  0  0  0  0
  -13.9775  -16.3563  -28.9769 H   0  0  0  0  0  0  0  0  0  0  0  0
  -13.9735  -14.7823  -29.7255 H   0  0  0  0  0  0  0  0  0  0  0  0
  -12.5742  -15.2416  -28.7382 H   0  0  0  0  0  0  0  0  0  0  0  0
  -14.6119  -23.9760  -25.2210 H   0  0  0  0  0  0  0  0  0  0  0  0
  -16.5024  -24.1605  -26.7796 H   0  0  0  0  0  0  0  0  0  0  0  0
  -15.4781  -23.7911  -28.1346 H   0  0  0  0  0  0  0  0  0  0  0  0
  -15.2896  -26.2638  -26.3704 H   0  0  0  0  0  0  0  0  0  0  0  0
  -15.8481  -26.2016  -28.0304 H   0  0  0  0  0  0  0  0  0  0  0  0
  -12.7240  -25.8533  -25.9460 H   0  0  0  0  0  0  0  0  0  0  0  0
  -11.7631  -25.4394  -27.3215 H   0  0  0  0  0  0  0  0  0  0  0  0
  -12.8451  -23.3198  -27.6328 H   0  0  0  0  0  0  0  0  0  0  0  0
  -12.3371  -23.4213  -25.9530 H   0  0  0  0  0  0  0  0  0  0  0  0
  -13.4815  -27.9505  -27.1677 H   0  0  0  0  0  0  0  0  0  0  0  0
  -14.1718  -27.7820  -28.7834 H   0  0  0  0  0  0  0  0  0  0  0  0
  -12.4546  -27.4691  -28.5209 H   0  0  0  0  0  0  0  0  0  0  0  0
  -13.6881  -25.4575  -28.6741 H   0  0  0  0  0  0  0  0  0  0  0  0
  1  2  2  0
  1  3  1  0
  1 18  1  0
  2  4  1  0
  2  5  1  0
  3  6  2  0
  3 27  1  0
  4  7  2  0
  4  8  1  0
  5 11  2  0
  6  7  1  0
  6 19  1  0
  7 28  1  0
  8  9  1  0
  8 10  2  0
  9 11  1  0
  9 29  1  0
 11 12  1  0
 12 13  2  0
 12 17  1  0
 13 14  1  0
 13 30  1  0
 14 15  2  0
 14 31  1  0
 15 16  1  0
 15 20  1  0
 16 17  2  0
 16 32  1  0
 17 33  1  0
 18 34  1  0
 18 35  1  0
 18 36  1  0
 20 21  1  0
 20 25  1  0
 20 37  1  0
 21 22  1  0
 21 38  1  0
 21 39  1  0
 22 23  1  0
 22 40  1  0
 22 41  1  0
 23 24  1  0
 23 26  1  0
 23 49  1  0
 24 25  1  0
 24 42  1  0
 24 43  1  0
 25 44  1  0
 25 45  1  0
 26 46  1  0
 26 47  1  0
 26 48  1  0
M  CHG  1  23   1
M  END
>  <s_m_entry_id>  (1) 
511

>  <Name>  (1) 
8f

>  <IC50[nM]>  (1) 
2.2

>  <s_m_Source_Path>  (1) 
/projects/mai/users/kmzp800_harry/pmx_colab/docking_jobs/tnks2

>  <s_m_Source_File>  (1) 
tnks2_lig.sdf

>  <i_m_Source_File_Index>  (1) 
12

>  <s_m_job_name>  (1) 
glide-dock_SP_tnks_mcs_fallabck

>  <r_i_docking_score>  (1) 
-10.0327887323297

>  <r_i_glide_gscore>  (1) 
-10.0327887323297

>  <r_i_glide_emodel>  (1) 
-34.8126558937637

>  <index_string>  (1) 
14:0:0

$$$$
