21:0:0
     RDKit          3D

 51 54  0  0  1  0  0  0  0  0999 V2000
   -4.5357   -3.2007   15.5241 C   0  0  0  0  0  0  0  0  0  0  0  0
   -3.8884   -2.2600   14.6803 O   0  0  0  0  0  0  0  0  0  0  0  0
   -2.5298   -2.0777   14.8249 C   0  0  0  0  0  0  0  0  0  0  0  0
   -1.7338   -2.8351   15.7104 C   0  0  0  0  0  0  0  0  0  0  0  0
   -0.3608   -2.5884   15.8173 C   0  0  0  0  0  0  0  0  0  0  0  0
    0.2506   -1.5708   15.0694 C   0  0  0  0  0  0  0  0  0  0  0  0
    1.6226   -1.3574   15.2874 N   0  0  0  0  0  0  0  0  0  0  0  0
    2.5349   -0.4383   14.7276 C   0  0  0  0  0  0  0  0  0  0  0  0
    2.1987    0.3634   13.7481 N   0  0  0  0  0  0  0  0  0  0  0  0
    3.1258    1.2471   13.2278 C   0  0  0  0  0  0  0  0  0  0  0  0
    4.4284    1.2858   13.6858 C   0  0  0  0  0  0  0  0  0  0  0  0
    4.7625    0.4899   14.7285 N   0  0  0  0  0  0  0  0  0  0  0  0
    5.9096    0.3865   15.4881 C   0  0  0  0  0  0  0  0  0  0  0  0
    5.6144   -0.4955   16.4996 C   0  0  0  0  0  0  0  0  0  0  0  0
    4.3704   -1.0621   16.3286 N   0  0  0  0  0  0  0  0  0  0  0  0
    3.8417   -0.4174   15.2971 C   0  0  0  0  0  0  0  0  0  0  0  0
    2.6559    2.1618   12.1576 C   0  0  0  0  0  0  0  0  0  0  0  0
    3.5648    2.6671   11.1927 C   0  0  0  0  0  0  0  0  0  0  0  0
    3.1558    3.4928   10.1413 C   0  0  0  0  0  0  0  0  0  0  0  0
    1.7990    3.8541   10.0464 C   0  0  0  0  0  0  0  0  0  0  0  0
    1.3630    4.7631    8.9366 C   0  0  0  0  0  0  0  0  0  0  0  0
    0.3594    4.5335    8.2658 O   0  0  0  0  0  0  0  0  0  0  0  0
    2.1348    5.8318    8.7285 N   0  0  0  0  0  0  0  0  0  0  0  0
    0.8726    3.3721   11.0169 C   0  0  0  0  0  0  0  0  0  0  0  0
   -0.6006    3.7289   10.9704 C   0  0  0  0  0  0  0  0  0  0  0  0
    1.3012    2.5414   12.0728 C   0  0  0  0  0  0  0  0  0  0  0  0
   -0.5388   -0.8184   14.1745 C   0  0  0  0  0  0  0  0  0  0  0  0
   -1.9235   -1.0674   14.0433 C   0  0  0  0  0  0  0  0  0  0  0  0
   -2.7426   -0.3345   13.2089 O   0  0  0  0  0  0  0  0  0  0  0  0
   -2.1846    0.6873   12.3919 C   0  0  0  0  0  0  0  0  0  0  0  0
   -5.5975   -3.2288   15.2831 H   0  0  0  0  0  0  0  0  0  0  0  0
   -4.1366   -4.2056   15.3791 H   0  0  0  0  0  0  0  0  0  0  0  0
   -4.4452   -2.9190   16.5760 H   0  0  0  0  0  0  0  0  0  0  0  0
   -2.1463   -3.6151   16.3246 H   0  0  0  0  0  0  0  0  0  0  0  0
    0.2188   -3.1968   16.4947 H   0  0  0  0  0  0  0  0  0  0  0  0
    2.0598   -2.0167   15.9241 H   0  0  0  0  0  0  0  0  0  0  0  0
    5.1986    1.9461   13.3087 H   0  0  0  0  0  0  0  0  0  0  0  0
    6.7670    0.9940   15.2472 H   0  0  0  0  0  0  0  0  0  0  0  0
    6.1789   -0.7505   17.3643 H   0  0  0  0  0  0  0  0  0  0  0  0
    4.6042    2.4028   11.2440 H   0  0  0  0  0  0  0  0  0  0  0  0
    3.8934    3.8390    9.4264 H   0  0  0  0  0  0  0  0  0  0  0  0
    1.8916    6.4862    7.9995 H   0  0  0  0  0  0  0  0  0  0  0  0
    2.9447    5.9860    9.3104 H   0  0  0  0  0  0  0  0  0  0  0  0
   -1.1616    3.2054   11.7432 H   0  0  0  0  0  0  0  0  0  0  0  0
   -0.7432    4.7986   11.1271 H   0  0  0  0  0  0  0  0  0  0  0  0
   -1.0319    3.4541   10.0074 H   0  0  0  0  0  0  0  0  0  0  0  0
    0.6045    2.1825   12.8241 H   0  0  0  0  0  0  0  0  0  0  0  0
   -0.0832   -0.0329   13.6060 H   0  0  0  0  0  0  0  0  0  0  0  0
   -2.9747    1.1127   11.7718 H   0  0  0  0  0  0  0  0  0  0  0  0
   -1.7735    1.4955   12.9958 H   0  0  0  0  0  0  0  0  0  0  0  0
   -1.4117    0.2989   11.7289 H   0  0  0  0  0  0  0  0  0  0  0  0
  1  2  1  0
  1 31  1  0
  1 32  1  0
  1 33  1  0
  2  3  1  0
  3  4  2  0
  3 28  1  0
  4  5  1  0
  4 34  1  0
  5  6  2  0
  5 35  1  0
  6  7  1  0
  6 27  1  0
  7  8  1  0
  7 36  1  0
  8  9  2  0
  8 16  1  0
  9 10  1  0
 10 11  2  0
 10 17  1  0
 11 12  1  0
 11 37  1  0
 12 13  1  0
 12 16  1  0
 13 14  2  0
 13 38  1  0
 14 15  1  0
 14 39  1  0
 15 16  2  0
 17 18  2  0
 17 26  1  0
 18 19  1  0
 18 40  1  0
 19 20  2  0
 19 41  1  0
 20 21  1  0
 20 24  1  0
 21 22  2  0
 21 23  1  0
 23 42  1  0
 23 43  1  0
 24 25  1  0
 24 26  2  0
 25 44  1  0
 25 45  1  0
 25 46  1  0
 26 47  1  0
 27 28  2  0
 27 48  1  0
 28 29  1  0
 29 30  1  0
 30 49  1  0
 30 50  1  0
 30 51  1  0
M  END
>  <s_m_entry_id>  (1) 
1105

>  <IC50[nM]>  (1) 
64.1

>  <s_m_Source_Path>  (1) 
/projects/mai/users/kmzp800_harry/pmx_colab/docking_jobs/syk

>  <s_m_Source_File>  (1) 
tnks2_lig.sdf

>  <i_m_Source_File_Index>  (1) 
23

>  <s_m_job_name>  (1) 
glide-dock_SP_syk_mcs

>  <r_i_docking_score>  (1) 
-6.76523171463397

>  <r_i_glide_gscore>  (1) 
-6.76523171463397

>  <r_i_glide_emodel>  (1) 
-46.6652580723127

>  <index_string>  (1) 
21:0:0

$$$$
