11:0:0
     RDKit          3D

 52 55  0  0  1  0  0  0  0  0999 V2000
    5.6370   -0.5690   16.2520 C   0  0  0  0  0  0  0  0  0  0  0  0
    4.3920   -1.1090   16.2250 N   0  0  0  0  0  0  0  0  0  0  0  0
    3.7620   -0.4010   15.2710 C   0  0  0  0  0  0  0  0  0  0  0  0
    2.4440   -0.5610   14.8480 C   0  0  0  0  0  0  0  0  0  0  0  0
    1.6090   -1.5630   15.4440 N   0  0  0  0  0  0  0  0  0  0  0  0
    1.9920    0.2660   13.8580 N   0  0  0  0  0  0  0  0  0  0  0  0
    2.7890    1.2240   13.2870 C   0  0  0  0  0  0  0  0  0  0  0  0
    4.1170    1.3630   13.7340 C   0  0  0  0  0  0  0  0  0  0  0  0
    4.5390    0.5320   14.7160 N   0  0  0  0  0  0  0  0  0  0  0  0
    5.7350    0.4550   15.3120 C   0  0  0  0  0  0  0  0  0  0  0  0
    0.2410   -1.8590   15.1310 C   0  0  0  0  0  0  0  0  0  0  0  0
   -0.2700   -3.1080   15.4920 C   0  0  0  0  0  0  0  0  0  0  0  0
   -1.5950   -3.4390   15.2060 C   0  0  0  0  0  0  0  0  0  0  0  0
   -2.4330   -2.5220   14.5530 C   0  0  0  0  0  0  0  0  0  0  0  0
   -1.9290   -1.2650   14.1860 C   0  0  0  0  0  0  0  0  0  0  0  0
   -0.5930   -0.9400   14.4780 C   0  0  0  0  0  0  0  0  0  0  0  0
   -3.7650   -2.8370   14.2600 O   0  0  0  0  0  0  0  0  0  0  0  0
   -4.7840   -2.8660   15.2490 C   0  0  0  0  0  0  0  0  0  0  0  0
   -2.7730   -0.3580   13.5370 O   0  0  0  0  0  0  0  0  0  0  0  0
   -2.3070    0.5690   12.5660 C   0  0  0  0  0  0  0  0  0  0  0  0
    2.2560    2.0950   12.2190 C   0  0  0  0  0  0  0  0  0  0  0  0
    3.1270    2.7190   11.3200 C   0  0  0  0  0  0  0  0  0  0  0  0
    2.6310    3.5420   10.3100 C   0  0  0  0  0  0  0  0  0  0  0  0
    1.2530    3.7640   10.1680 C   0  0  0  0  0  0  0  0  0  0  0  0
    0.3620    3.1370   11.0720 C   0  0  0  0  0  0  0  0  0  0  0  0
    0.8780    2.3100   12.0850 C   0  0  0  0  0  0  0  0  0  0  0  0
    0.7940    4.6510    9.0700 C   0  0  0  0  0  0  0  0  0  0  0  0
    1.3370    5.7750    8.9030 O   0  0  0  0  0  0  0  0  0  0  0  0
   -0.2560    4.2630    8.1890 N   0  0  0  0  0  0  0  0  0  0  0  0
   -1.0200    3.3350   10.9610 O   0  0  0  0  0  0  0  0  0  0  0  0
   -1.7440    4.2220   11.8030 C   0  0  0  0  0  0  0  0  0  0  0  0
    6.4500   -0.8925   16.9186 H   0  0  0  0  0  0  0  0  0  0  0  0
    2.0417   -2.1364   16.1822 H   0  0  0  0  0  0  0  0  0  0  0  0
    4.7876    2.1197   13.3008 H   0  0  0  0  0  0  0  0  0  0  0  0
    6.6184    1.0758   15.1018 H   0  0  0  0  0  0  0  0  0  0  0  0
    0.3764   -3.8353   16.0051 H   0  0  0  0  0  0  0  0  0  0  0  0
   -1.9856   -4.4260   15.4945 H   0  0  0  0  0  0  0  0  0  0  0  0
   -0.1975    0.0456   14.1913 H   0  0  0  0  0  0  0  0  0  0  0  0
   -4.3252   -2.8529   16.2487 H   0  0  0  0  0  0  0  0  0  0  0  0
   -5.4335   -1.9860   15.1321 H   0  0  0  0  0  0  0  0  0  0  0  0
   -5.3824   -3.7815   15.1321 H   0  0  0  0  0  0  0  0  0  0  0  0
   -1.8685    1.4413   13.0727 H   0  0  0  0  0  0  0  0  0  0  0  0
   -1.5434    0.0882   11.9368 H   0  0  0  0  0  0  0  0  0  0  0  0
   -3.1484    0.8950   11.9368 H   0  0  0  0  0  0  0  0  0  0  0  0
    4.2115    2.5592   11.4106 H   0  0  0  0  0  0  0  0  0  0  0  0
    3.3315    4.0252    9.6130 H   0  0  0  0  0  0  0  0  0  0  0  0
    0.1858    1.8218   12.7867 H   0  0  0  0  0  0  0  0  0  0  0  0
   -0.5561    4.8970    7.4347 H   0  0  0  0  0  0  0  0  0  0  0  0
   -0.7152    3.3485    8.3063 H   0  0  0  0  0  0  0  0  0  0  0  0
   -1.5423    3.9748   12.8557 H   0  0  0  0  0  0  0  0  0  0  0  0
   -1.4293    5.2568   11.6025 H   0  0  0  0  0  0  0  0  0  0  0  0
   -2.8208    4.1209   11.6025 H   0  0  0  0  0  0  0  0  0  0  0  0
  1  2  1  0
  1 10  2  0
  2  3  2  0
  3  4  1  0
  3  9  1  0
  4  5  1  0
  4  6  2  0
  5 11  1  0
  6  7  1  0
  7  8  2  0
  7 21  1  0
  8  9  1  0
  9 10  1  0
 11 12  2  0
 11 16  1  0
 12 13  1  0
 13 14  2  0
 14 15  1  0
 14 17  1  0
 15 16  2  0
 15 19  1  0
 17 18  1  0
 19 20  1  0
 21 22  2  0
 21 26  1  0
 22 23  1  0
 23 24  2  0
 24 25  1  0
 24 27  1  0
 25 26  2  0
 25 30  1  0
 27 28  2  0
 27 29  1  0
 30 31  1  0
  1 32  1  0
  5 33  1  0
  8 34  1  0
 10 35  1  0
 12 36  1  0
 13 37  1  0
 16 38  1  0
 18 39  1  0
 18 40  1  0
 18 41  1  0
 20 42  1  0
 20 43  1  0
 20 44  1  0
 22 45  1  0
 23 46  1  0
 26 47  1  0
 29 48  1  0
 29 49  1  0
 31 50  1  0
 31 51  1  0
 31 52  1  0
M  END
>  <s_m_entry_id>  (1) 
12

>  <MODEL>  (1) 
1

>  <REMARK>  (1) 
 VINA RESULT:    -8.693      0.000      0.000
 INTER + INTRA:         -12.627
 INTER:                 -11.742
 INTRA:                  -0.885
 UNBOUND:                -0.885
  Name = /scratch/kmzp800/tmprs1nzm1c/tmpzx2v31o_.pdb
  9 active torsions:
  status: ('A' for Active; 'I' for Inactive)
    1  A    between atoms: N2_5  and  C4_6
    2  A    between atoms: C7_9  and  O1_10
    3  A    between atoms: O1_10  and  C8_11
    4  A    between atoms: C9_12  and  O2_13
    5  A    between atoms: O2_13  and  C10_14
    6  A    between atoms: C12_17  and  C13_18
    7  A    between atoms: C16_21  and  C17_22
    8  A    between atoms: C18_25  and  O4_26
    9  A    between atoms: O4_26  and  C19_27
                            x       y       z     vdW  Elec       q    Type
                         _______ _______ _______ _____ _____    ______ ____

>  <TORSDO>  (1) 
F 6

>  <grid_id>  (1) 
syk-prepared

>  <grid_path>  (1) 
syk_vina.pdbqt

>  <grid_filename>  (1) 
syk_vina.pdbqt

>  <docking_score>  (1) 
-8.693

>  <compound_name>  (1) 
CHEMBL3265014

>  <index_string>  (1) 
11:0:0

>  <s_m_Source_Path>  (1) 
/projects/mai/users/kmzp800_harry/pmx_colab/docking_jobs/syk/vina_prep/output

>  <s_m_Source_File>  (1) 
ptp1b_docked_conformers.sdf

>  <i_m_Source_File_Index>  (1) 
12

$$$$
