23:0:0
     RDKit          3D

 45 47  0  0  1  0  0  0  0  0999 V2000
   32.7520   34.6576   14.3842 F   0  0  0  0  0  0  0  0  0  0  0  0
   33.4705   34.8925   15.5070 C   0  0  0  0  0  0  0  0  0  0  0  0
   34.8673   34.8945   15.4888 C   0  0  0  0  0  0  0  0  0  0  0  0
   35.6143   35.1494   16.6458 C   0  0  0  0  0  0  0  0  0  0  0  0
   36.9647   35.2038   16.5649 F   0  0  0  0  0  0  0  0  0  0  0  0
   34.9546   35.2412   17.8880 C   0  0  0  0  0  0  0  0  0  0  0  0
   33.5437   35.2492   17.9131 C   0  0  0  0  0  0  0  0  0  0  0  0
   32.8254   35.1493   16.7129 C   0  0  0  0  0  0  0  0  0  0  0  0
   35.7090   35.2436   19.0326 O   0  0  0  0  0  0  0  0  0  0  0  0
   35.1780   35.8278   20.1418 C   0  0  0  0  0  0  0  0  0  0  0  0
   35.2608   37.1618   20.2624 C   0  0  0  0  0  0  0  0  0  0  0  0
   34.5522   34.9937   21.1712 C   0  0  0  0  0  0  0  0  0  0  0  0
   34.3453   33.7984   20.9724 O   0  0  0  0  0  0  0  0  0  0  0  0
   34.1930   35.6166   22.3313 N   0  0  0  0  0  0  0  0  0  0  0  0
   33.6393   34.8257   23.4400 C   0  0  0  0  0  0  0  0  0  0  0  0
   34.2861   37.0389   22.5193 C   0  0  0  0  0  0  0  0  0  0  0  0
   34.8007   37.8290   21.4694 C   0  0  0  0  0  0  0  0  0  0  0  0
   33.9000   37.6365   23.6662 N   0  0  0  0  0  0  0  0  0  0  0  0
   34.0146   38.9597   23.7677 C   0  0  0  0  0  0  0  0  0  0  0  0
   34.4769   39.7877   22.8295 N   0  0  0  0  0  0  0  0  0  0  0  0
   34.8635   39.2220   21.6664 C   0  0  0  0  0  0  0  0  0  0  0  0
   33.6265   39.5493   24.9535 N   0  0  0  0  0  0  0  0  0  0  0  0
   32.9805   38.8701   26.0741 C   0  0  0  0  0  0  0  0  0  0  0  0
   33.7421   39.0351   27.4089 C   0  0  0  0  0  0  0  0  0  0  0  0
   35.2549   38.7665   27.2869 C   0  0  0  0  0  0  0  0  0  0  0  0
   33.5441   40.3478   27.8886 O   0  0  0  0  0  0  0  0  0  0  0  0
   33.1240   38.1098   28.4719 C   0  0  0  0  0  0  0  0  0  0  0  0
   35.3520   34.6994   14.5593 H   0  0  0  0  0  0  0  0  0  0  0  0
   32.9837   35.3284   18.8315 H   0  0  0  0  0  0  0  0  0  0  0  0
   31.7496   35.1486   16.7486 H   0  0  0  0  0  0  0  0  0  0  0  0
   35.7293   37.7599   19.4961 H   0  0  0  0  0  0  0  0  0  0  0  0
   33.7476   33.7458   23.3245 H   0  0  0  0  0  0  0  0  0  0  0  0
   34.1443   35.0816   24.3726 H   0  0  0  0  0  0  0  0  0  0  0  0
   32.5766   35.0451   23.5631 H   0  0  0  0  0  0  0  0  0  0  0  0
   35.2433   39.8830   20.9029 H   0  0  0  0  0  0  0  0  0  0  0  0
   33.7510   40.5518   25.0292 H   0  0  0  0  0  0  0  0  0  0  0  0
   32.8735   37.8060   25.8658 H   0  0  0  0  0  0  0  0  0  0  0  0
   31.9624   39.2515   26.1741 H   0  0  0  0  0  0  0  0  0  0  0  0
   35.4478   37.7782   26.8642 H   0  0  0  0  0  0  0  0  0  0  0  0
   35.7453   38.8132   28.2602 H   0  0  0  0  0  0  0  0  0  0  0  0
   35.7505   39.4982   26.6512 H   0  0  0  0  0  0  0  0  0  0  0  0
   33.7517   40.9711   27.2033 H   0  0  0  0  0  0  0  0  0  0  0  0
   33.2374   37.0646   28.1885 H   0  0  0  0  0  0  0  0  0  0  0  0
   33.6019   38.2417   29.4431 H   0  0  0  0  0  0  0  0  0  0  0  0
   32.0582   38.2961   28.6079 H   0  0  0  0  0  0  0  0  0  0  0  0
  1  2  1  0
  2  8  2  0
  2  3  1  0
  3  4  2  0
  3 28  1  0
  4  5  1  0
  4  6  1  0
  6  7  2  0
  6  9  1  0
  7  8  1  0
  7 29  1  0
  8 30  1  0
  9 10  1  0
 10 11  2  0
 10 12  1  0
 11 17  1  0
 11 31  1  0
 12 13  2  0
 12 14  1  0
 14 15  1  0
 14 16  1  0
 15 32  1  0
 15 33  1  0
 15 34  1  0
 16 17  2  0
 16 18  1  0
 17 21  1  0
 18 19  2  0
 19 20  1  0
 19 22  1  0
 20 21  2  0
 21 35  1  0
 22 23  1  0
 22 36  1  0
 23 24  1  0
 23 37  1  0
 23 38  1  0
 24 25  1  0
 24 26  1  0
 24 27  1  0
 25 39  1  0
 25 40  1  0
 25 41  1  0
 26 42  1  0
 27 43  1  0
 27 44  1  0
 27 45  1  0
M  END
>  <s_m_entry_id>  (1) 
269

>  <i_f3d_flags>  (1) 
0

>  <r_lp_tautomer_probability>  (1) 
1

>  <r_epik_Ionization_Penalty>  (1) 
  0.0000

>  <r_epik_State_Penalty>  (1) 
  0.0000

>  <i_epik_Tot_Q>  (1) 
0

>  <s_m_job_name>  (1) 
glide-dock_SP_p38_core_cons_top_1

>  <r_i_docking_score>  (1) 
-6.68978102664877

>  <r_i_glide_gscore>  (1) 
-6.68978102664877

>  <r_i_glide_emodel>  (1) 
-42.8434282172549

>  <index_string>  (1) 
23:0:0

$$$$
