15:0:0
     RDKit          3D

 42 44  0  0  1  0  0  0  0  0999 V2000
   39.1926   17.5344   12.6747 O   0  0  0  0  0  0  0  0  0  0  0  0
   40.3572   17.0712   12.6822 C   0  0  0  0  0  0  0  0  0  0  0  0
   41.2247   17.3055   11.8088 O   0  0  0  0  0  0  0  0  0  0  0  0
   40.7451   16.1481   13.8375 C   0  0  0  0  0  0  0  0  0  0  0  0
   42.0977   15.7364   13.7400 O   0  0  0  0  0  0  0  0  0  0  0  0
   42.4943   14.9350   14.7553 C   0  0  0  0  0  0  0  0  0  0  0  0
   42.1554   13.5711   14.8811 C   0  0  0  0  0  0  0  0  0  0  0  0
   41.1684   12.6865   13.5330 Br  0  0  0  0  0  0  0  0  0  0  0  0
   42.5930   12.9396   16.0100 C   0  0  0  0  0  0  0  0  0  0  0  0
   42.3297   11.5863   16.4697 C   0  0  0  0  0  0  0  0  0  0  0  0
   43.3726   10.7874   16.9710 C   0  0  0  0  0  0  0  0  0  0  0  0
   43.1120    9.4825   17.4082 C   0  0  0  0  0  0  0  0  0  0  0  0
   41.8089    8.9641   17.3496 C   0  0  0  0  0  0  0  0  0  0  0  0
   40.7527    9.7417   16.8375 C   0  0  0  0  0  0  0  0  0  0  0  0
   39.4584    9.2125   16.7681 N   0  0  0  0  0  0  0  0  0  0  0  0
   39.2300    7.7752   16.8449 C   0  0  0  0  0  0  0  0  0  0  0  0
   39.3860    7.0203   15.5381 C   0  0  0  0  0  0  0  0  0  0  0  0
   39.6573    7.6957   14.3261 C   0  0  0  0  0  0  0  0  0  0  0  0
   39.7889    6.9729   13.1257 C   0  0  0  0  0  0  0  0  0  0  0  0
   39.6389    5.5746   13.1274 C   0  0  0  0  0  0  0  0  0  0  0  0
   39.3823    4.8934   14.3318 C   0  0  0  0  0  0  0  0  0  0  0  0
   39.2552    5.6161   15.5365 C   0  0  0  0  0  0  0  0  0  0  0  0
   41.0223   11.0572   16.4160 C   0  0  0  0  0  0  0  0  0  0  0  0
   43.6055   14.0245   16.9251 S   0  0  0  0  0  0  0  0  0  0  0  0
   43.3277   15.3231   15.7799 C   0  0  0  0  0  0  0  0  0  0  0  0
   44.0044   16.5979   16.0537 C   0  0  0  0  0  0  0  0  0  0  0  0
   43.8386   17.5572   15.2680 O   0  0  0  0  0  0  0  0  0  0  0  0
   44.7482   16.6818   17.0560 O   0  0  0  0  0  0  0  0  0  0  0  0
   40.5982   16.6793   14.7823 H   0  0  0  0  0  0  0  0  0  0  0  0
   40.0757   15.2910   13.8372 H   0  0  0  0  0  0  0  0  0  0  0  0
   44.3749   11.1864   17.0162 H   0  0  0  0  0  0  0  0  0  0  0  0
   43.9122    8.8805   17.8000 H   0  0  0  0  0  0  0  0  0  0  0  0
   41.6306    7.9650   17.7116 H   0  0  0  0  0  0  0  0  0  0  0  0
   38.6775    9.8022   16.5071 H   0  0  0  0  0  0  0  0  0  0  0  0
   39.9091    7.3222   17.5623 H   0  0  0  0  0  0  0  0  0  0  0  0
   38.2283    7.6025   17.2330 H   0  0  0  0  0  0  0  0  0  0  0  0
   39.7478    8.7705   14.3111 H   0  0  0  0  0  0  0  0  0  0  0  0
   40.0014    7.4861   12.1960 H   0  0  0  0  0  0  0  0  0  0  0  0
   39.7448    5.0199   12.2055 H   0  0  0  0  0  0  0  0  0  0  0  0
   39.2846    3.8205   14.3264 H   0  0  0  0  0  0  0  0  0  0  0  0
   39.0545    5.0985   16.4594 H   0  0  0  0  0  0  0  0  0  0  0  0
   40.2164   11.6857   16.0622 H   0  0  0  0  0  0  0  0  0  0  0  0
  1  2  2  0
  2  3  1  0
  2  4  1  0
  4  5  1  0
  4 29  1  0
  4 30  1  0
  5  6  1  0
  6  7  1  0
  6 25  2  0
  7  8  1  0
  7  9  2  0
  9 10  1  0
  9 24  1  0
 10 11  2  0
 10 23  1  0
 11 12  1  0
 11 31  1  0
 12 13  2  0
 12 32  1  0
 13 14  1  0
 13 33  1  0
 14 15  1  0
 14 23  2  0
 15 16  1  0
 15 34  1  0
 16 17  1  0
 16 35  1  0
 16 36  1  0
 17 18  2  0
 17 22  1  0
 18 19  1  0
 18 37  1  0
 19 20  2  0
 19 38  1  0
 20 21  1  0
 20 39  1  0
 21 22  2  0
 21 40  1  0
 22 41  1  0
 23 42  1  0
 24 25  1  0
 25 26  1  0
 26 27  2  0
 26 28  1  0
M  CHG  2   3  -1  28  -1
M  END
>  <s_m_entry_id>  (1) 
532

>  <s_m_Source_Path>  (1) 
/projects/mai/users/kmzp800_harry/pmx_colab/docking_jobs/ptp1b/glide-dock_SP_ptp1b_mcs_2

>  <s_m_Source_File>  (1) 
glide-dock_SP_ptp1b_mcs_2_pv.maegz

>  <i_m_Source_File_Index>  (1) 
17

>  <r_i_docking_score>  (1) 
-6.686617259342

>  <r_i_glide_gscore>  (1) 
-6.686617259342

>  <r_i_glide_emodel>  (1) 
-84.3019498500642

>  <index_string>  (1) 
15:0:0

$$$$
