9:0:0
     RDKit          3D

 50 54  0  0  1  0  0  0  0  0999 V2000
    5.5350   -0.6610   16.2660 C   0  0  0  0  0  0  0  0  0  0  0  0
    4.2330   -1.0350   16.1910 N   0  0  0  0  0  0  0  0  0  0  0  0
    3.7420   -0.2750   15.1990 C   0  0  0  0  0  0  0  0  0  0  0  0
    2.4350   -0.2750   14.7160 C   0  0  0  0  0  0  0  0  0  0  0  0
    1.4430   -1.1320   15.2970 N   0  0  0  0  0  0  0  0  0  0  0  0
    2.1360    0.5880   13.6990 N   0  0  0  0  0  0  0  0  0  0  0  0
    3.0730    1.4240   13.1490 C   0  0  0  0  0  0  0  0  0  0  0  0
    4.3890    1.3970   13.6530 C   0  0  0  0  0  0  0  0  0  0  0  0
    4.6560    0.5370   14.6630 N   0  0  0  0  0  0  0  0  0  0  0  0
    5.8060    0.3210   15.3160 C   0  0  0  0  0  0  0  0  0  0  0  0
    2.6960    2.3410   12.0540 C   0  0  0  0  0  0  0  0  0  0  0  0
    3.6070    2.6530   11.0300 C   0  0  0  0  0  0  0  0  0  0  0  0
    3.2440    3.5240    9.9970 C   0  0  0  0  0  0  0  0  0  0  0  0
    1.9660    4.0860    9.9750 C   0  0  0  0  0  0  0  0  0  0  0  0
    1.0550    3.7880   10.9990 C   0  0  0  0  0  0  0  0  0  0  0  0
    1.4200    2.9220   12.0320 C   0  0  0  0  0  0  0  0  0  0  0  0
   -0.2260    4.4170   11.0000 N   0  0  0  0  0  0  0  0  0  0  0  0
   -0.6090    5.2580    9.9110 C   0  0  0  0  0  0  0  0  0  0  0  0
   -1.6950    5.8920    9.9600 O   0  0  0  0  0  0  0  0  0  0  0  0
    0.2440    5.3240    8.6780 C   0  0  0  0  0  0  0  0  0  0  0  0
    1.6030    4.9660    8.9490 O   0  0  0  0  0  0  0  0  0  0  0  0
    0.1080   -1.3470   14.8260 C   0  0  0  0  0  0  0  0  0  0  0  0
   -0.5120   -2.5700   15.0950 C   0  0  0  0  0  0  0  0  0  0  0  0
   -1.8060   -2.8220   14.6370 C   0  0  0  0  0  0  0  0  0  0  0  0
   -2.5010   -1.8530   13.8950 C   0  0  0  0  0  0  0  0  0  0  0  0
   -1.8830   -0.6250   13.6120 C   0  0  0  0  0  0  0  0  0  0  0  0
   -0.5820   -0.3800   14.0800 C   0  0  0  0  0  0  0  0  0  0  0  0
   -3.7980   -2.0890   13.4290 O   0  0  0  0  0  0  0  0  0  0  0  0
   -4.1880   -3.3140   12.8250 C   0  0  0  0  0  0  0  0  0  0  0  0
   -2.5780    0.3320   12.8630 O   0  0  0  0  0  0  0  0  0  0  0  0
   -1.9220    1.3140   12.0740 C   0  0  0  0  0  0  0  0  0  0  0  0
    6.2694   -1.0731   16.9737 H   0  0  0  0  0  0  0  0  0  0  0  0
    1.7205   -1.6483   16.1440 H   0  0  0  0  0  0  0  0  0  0  0  0
    5.1708    2.0515   13.2402 H   0  0  0  0  0  0  0  0  0  0  0  0
    6.7704    0.8191   15.1376 H   0  0  0  0  0  0  0  0  0  0  0  0
    4.6133    2.2088   11.0409 H   0  0  0  0  0  0  0  0  0  0  0  0
    3.9652    3.7660    9.2024 H   0  0  0  0  0  0  0  0  0  0  0  0
    0.7019    2.6942   12.8335 H   0  0  0  0  0  0  0  0  0  0  0  0
   -0.8742    4.2645   11.7858 H   0  0  0  0  0  0  0  0  0  0  0  0
   -0.1631    4.6314    7.9266 H   0  0  0  0  0  0  0  0  0  0  0  0
    0.2316    6.3606    8.3101 H   0  0  0  0  0  0  0  0  0  0  0  0
    0.0232   -3.3390   15.6714 H   0  0  0  0  0  0  0  0  0  0  0  0
   -2.2853   -3.7869   14.8588 H   0  0  0  0  0  0  0  0  0  0  0  0
   -0.0977    0.5826   13.8588 H   0  0  0  0  0  0  0  0  0  0  0  0
   -4.4225   -4.0504   13.6077 H   0  0  0  0  0  0  0  0  0  0  0  0
   -5.0776   -3.1477   12.1998 H   0  0  0  0  0  0  0  0  0  0  0  0
   -3.3660   -3.6926   12.1998 H   0  0  0  0  0  0  0  0  0  0  0  0
   -1.4326    2.0466   12.7326 H   0  0  0  0  0  0  0  0  0  0  0  0
   -1.1658    0.8291   11.4391 H   0  0  0  0  0  0  0  0  0  0  0  0
   -2.6595    1.8269   11.4391 H   0  0  0  0  0  0  0  0  0  0  0  0
  1  2  1  0
  1 10  2  0
  2  3  2  0
  3  4  1  0
  3  9  1  0
  4  5  1  0
  4  6  2  0
  5 22  1  0
  6  7  1  0
  7  8  2  0
  7 11  1  0
  8  9  1  0
  9 10  1  0
 11 12  2  0
 11 16  1  0
 12 13  1  0
 13 14  2  0
 14 15  1  0
 14 21  1  0
 15 17  1  0
 15 16  2  0
 17 18  1  0
 18 19  2  0
 18 20  1  0
 20 21  1  0
 22 23  2  0
 22 27  1  0
 23 24  1  0
 24 25  2  0
 25 26  1  0
 25 28  1  0
 26 27  2  0
 26 30  1  0
 28 29  1  0
 30 31  1  0
  1 32  1  0
  5 33  1  0
  8 34  1  0
 10 35  1  0
 12 36  1  0
 13 37  1  0
 16 38  1  0
 17 39  1  0
 20 40  1  0
 20 41  1  0
 23 42  1  0
 24 43  1  0
 27 44  1  0
 29 45  1  0
 29 46  1  0
 29 47  1  0
 31 48  1  0
 31 49  1  0
 31 50  1  0
M  END
>  <s_m_entry_id>  (1) 
439

>  <MODEL>  (1) 
1

>  <REMARK>  (1) 
 VINA RESULT:   -10.167      0.000      0.000
 INTER + INTRA:         -12.347
 INTER:                 -11.858
 INTRA:                  -0.490
 UNBOUND:                 0.197
  Name = /scratch/kmzp800/tmpov4q96ul/tmpgq0jnlt_.pdb
  6 active torsions:
  status: ('A' for Active; 'I' for Inactive)
    1  A    between atoms: N2_5  and  C4_6
    2  A    between atoms: C7_9  and  O1_10
    3  A    between atoms: O1_10  and  C8_11
    4  A    between atoms: C9_12  and  O2_13
    5  A    between atoms: O2_13  and  C10_14
    6  A    between atoms: C12_17  and  C13_18
                            x       y       z     vdW  Elec       q    Type
                         _______ _______ _______ _____ _____    ______ ____

>  <TORSDO>  (1) 
F 4

>  <grid_id>  (1) 
syk-prepared

>  <grid_path>  (1) 
syk_vina.pdbqt

>  <grid_filename>  (1) 
syk_vina.pdbqt

>  <docking_score>  (1) 
-10.167

>  <compound_name>  (1) 
CHEMBL3265024

>  <index_string>  (1) 
9:0:0

>  <s_m_Source_Path>  (1) 
/projects/mai/users/kmzp800_harry/pmx_colab/docking_jobs/syk/vina_prep/output

>  <s_m_Source_File>  (1) 
ptp1b_docked_conformers.sdf

>  <i_m_Source_File_Index>  (1) 
263

$$$$
