6:0:0
     RDKit          3D

 65 70  0  0  1  0  0  0  0  0999 V2000
   -4.5848   -3.0203   15.7907 C   0  0  0  0  0  0  0  0  0  0  0  0
   -3.9596   -2.1201   14.8886 O   0  0  0  0  0  0  0  0  0  0  0  0
   -2.5870   -1.9918   14.9506 C   0  0  0  0  0  0  0  0  0  0  0  0
   -1.7584   -2.8037   15.7633 C   0  0  0  0  0  0  0  0  0  0  0  0
   -0.3716   -2.5805   15.8159 C   0  0  0  0  0  0  0  0  0  0  0  0
    0.2253   -1.5518   15.0633 C   0  0  0  0  0  0  0  0  0  0  0  0
    1.6064   -1.3636   15.2509 N   0  0  0  0  0  0  0  0  0  0  0  0
    2.5297   -0.4419   14.7277 C   0  0  0  0  0  0  0  0  0  0  0  0
    2.2033    0.3773   13.7729 N   0  0  0  0  0  0  0  0  0  0  0  0
    3.1233    1.2647   13.2563 C   0  0  0  0  0  0  0  0  0  0  0  0
    4.4309    1.2855   13.6861 C   0  0  0  0  0  0  0  0  0  0  0  0
    4.7633    0.4708   14.7194 N   0  0  0  0  0  0  0  0  0  0  0  0
    5.9109    0.3764   15.4814 C   0  0  0  0  0  0  0  0  0  0  0  0
    5.6045   -0.4962   16.4918 C   0  0  0  0  0  0  0  0  0  0  0  0
    4.3663   -1.0715   16.3202 N   0  0  0  0  0  0  0  0  0  0  0  0
    3.8283   -0.4236   15.2952 C   0  0  0  0  0  0  0  0  0  0  0  0
    2.6220    2.2458   12.2596 C   0  0  0  0  0  0  0  0  0  0  0  0
    3.4939    2.8044   11.2919 C   0  0  0  0  0  0  0  0  0  0  0  0
    3.0242    3.7011   10.3147 C   0  0  0  0  0  0  0  0  0  0  0  0
    1.6651    4.0568   10.2832 C   0  0  0  0  0  0  0  0  0  0  0  0
    0.7793    3.5372   11.2477 C   0  0  0  0  0  0  0  0  0  0  0  0
    1.2641    2.6545   12.2389 C   0  0  0  0  0  0  0  0  0  0  0  0
   -0.6836    3.8214   11.1317 C   0  0  0  0  0  0  0  0  0  0  0  0
   -1.3221    3.2791   10.2302 O   0  0  0  0  0  0  0  0  0  0  0  0
   -1.1995    4.6488   12.0628 N   0  0  0  0  0  0  0  0  0  0  0  0
   -2.5430    5.1212   12.1563 C   0  0  0  0  0  0  0  0  0  0  0  0
   -3.4242    5.1576   11.0502 C   0  0  0  0  0  0  0  0  0  0  0  0
   -4.7521    5.5914   11.2053 C   0  0  0  0  0  0  0  0  0  0  0  0
   -5.2437    6.0043   12.4616 C   0  0  0  0  0  0  0  0  0  0  0  0
   -4.3499    6.0041   13.5578 C   0  0  0  0  0  0  0  0  0  0  0  0
   -3.0090    5.5925   13.4018 C   0  0  0  0  0  0  0  0  0  0  0  0
   -6.6570    6.4036   12.6097 C   0  0  0  0  0  0  0  0  0  0  0  0
   -7.3900    6.5518   13.8200 C   0  0  0  0  0  0  0  0  0  0  0  0
   -8.6459    6.9135   13.6035 N   0  0  0  0  0  0  0  0  0  0  0  0
   -8.7378    6.9770   12.2586 N   0  0  0  0  0  0  0  0  0  0  0  0
   -7.5555    6.6803   11.6181 C   0  0  0  0  0  0  0  0  0  0  0  0
   -0.5977   -0.7707   14.2180 C   0  0  0  0  0  0  0  0  0  0  0  0
   -1.9999   -0.9775   14.1610 C   0  0  0  0  0  0  0  0  0  0  0  0
   -2.8524   -0.2137   13.3863 O   0  0  0  0  0  0  0  0  0  0  0  0
   -2.2854    0.7446   12.5025 C   0  0  0  0  0  0  0  0  0  0  0  0
   -5.6649   -2.9600   15.6654 H   0  0  0  0  0  0  0  0  0  0  0  0
   -4.2877   -4.0505   15.5933 H   0  0  0  0  0  0  0  0  0  0  0  0
   -4.3575   -2.7705   16.8276 H   0  0  0  0  0  0  0  0  0  0  0  0
   -2.1614   -3.5927   16.3810 H   0  0  0  0  0  0  0  0  0  0  0  0
    0.2313   -3.1944   16.4712 H   0  0  0  0  0  0  0  0  0  0  0  0
    2.0211   -1.9627   15.9548 H   0  0  0  0  0  0  0  0  0  0  0  0
    5.1861    1.9833   13.3429 H   0  0  0  0  0  0  0  0  0  0  0  0
    6.7697    0.9947   15.2706 H   0  0  0  0  0  0  0  0  0  0  0  0
    6.1217   -0.7941   17.3772 H   0  0  0  0  0  0  0  0  0  0  0  0
    4.5363    2.5248   11.2679 H   0  0  0  0  0  0  0  0  0  0  0  0
    3.7033    4.0989    9.5758 H   0  0  0  0  0  0  0  0  0  0  0  0
    1.3021    4.7178    9.5090 H   0  0  0  0  0  0  0  0  0  0  0  0
    0.5743    2.2481   12.9636 H   0  0  0  0  0  0  0  0  0  0  0  0
   -0.5668    4.9526   12.7895 H   0  0  0  0  0  0  0  0  0  0  0  0
   -3.1083    4.8568   10.0633 H   0  0  0  0  0  0  0  0  0  0  0  0
   -5.3983    5.5855   10.3402 H   0  0  0  0  0  0  0  0  0  0  0  0
   -4.6822    6.3219   14.5358 H   0  0  0  0  0  0  0  0  0  0  0  0
   -2.3499    5.6038   14.2591 H   0  0  0  0  0  0  0  0  0  0  0  0
   -7.0612    6.4042   14.8377 H   0  0  0  0  0  0  0  0  0  0  0  0
   -9.6072    7.2026   11.7967 H   0  0  0  0  0  0  0  0  0  0  0  0
   -7.4627    6.6859   10.5417 H   0  0  0  0  0  0  0  0  0  0  0  0
   -0.1654    0.0180   13.6322 H   0  0  0  0  0  0  0  0  0  0  0  0
   -3.0725    1.1933   11.8971 H   0  0  0  0  0  0  0  0  0  0  0  0
   -1.7974    1.5479   13.0562 H   0  0  0  0  0  0  0  0  0  0  0  0
   -1.5694    0.2888   11.8171 H   0  0  0  0  0  0  0  0  0  0  0  0
  1  2  1  0
  1 41  1  0
  1 42  1  0
  1 43  1  0
  2  3  1  0
  3  4  2  0
  3 38  1  0
  4  5  1  0
  4 44  1  0
  5  6  2  0
  5 45  1  0
  6  7  1  0
  6 37  1  0
  7  8  1  0
  7 46  1  0
  8  9  2  0
  8 16  1  0
  9 10  1  0
 10 11  2  0
 10 17  1  0
 11 12  1  0
 11 47  1  0
 12 13  1  0
 12 16  1  0
 13 14  2  0
 13 48  1  0
 14 15  1  0
 14 49  1  0
 15 16  2  0
 17 18  2  0
 17 22  1  0
 18 19  1  0
 18 50  1  0
 19 20  2  0
 19 51  1  0
 20 21  1  0
 20 52  1  0
 21 22  2  0
 21 23  1  0
 22 53  1  0
 23 24  2  0
 23 25  1  0
 25 26  1  0
 25 54  1  0
 26 27  2  0
 26 31  1  0
 27 28  1  0
 27 55  1  0
 28 29  2  0
 28 56  1  0
 29 30  1  0
 29 32  1  0
 30 31  2  0
 30 57  1  0
 31 58  1  0
 32 33  1  0
 32 36  2  0
 33 34  2  0
 33 59  1  0
 34 35  1  0
 35 36  1  0
 35 60  1  0
 36 61  1  0
 37 38  2  0
 37 62  1  0
 38 39  1  0
 39 40  1  0
 40 63  1  0
 40 64  1  0
 40 65  1  0
M  END
>  <s_m_entry_id>  (1) 
994

>  <IC50[nM]>  (1) 
11

>  <s_m_Source_Path>  (1) 
/projects/mai/users/kmzp800_harry/pmx_colab/docking_jobs/syk

>  <s_m_Source_File>  (1) 
tnks2_lig.sdf

>  <i_m_Source_File_Index>  (1) 
7

>  <s_m_job_name>  (1) 
glide-dock_SP_tnks2_core_const

>  <r_i_docking_score>  (1) 
-7.79247974405355

>  <r_i_glide_gscore>  (1) 
-7.79247974405355

>  <r_i_glide_emodel>  (1) 
-66.2459639195198

>  <index_string>  (1) 
6:0:0

$$$$
