5:0:0
     RDKit          3D

 50 52  0  0  1  0  0  0  0  0999 V2000
   42.7840    9.3040   16.8110 C   0  0  0  0  0  0  0  0  0  0  0  0
   43.0670   10.6460   16.5480 C   0  0  0  0  0  0  0  0  0  0  0  0
   42.0770   11.5030   16.0410 C   0  0  0  0  0  0  0  0  0  0  0  0
   40.7990   10.9830   15.8030 C   0  0  0  0  0  0  0  0  0  0  0  0
   40.5030    9.6380   16.0670 C   0  0  0  0  0  0  0  0  0  0  0  0
   41.5020    8.8010   16.5700 C   0  0  0  0  0  0  0  0  0  0  0  0
   42.4020   12.9240   15.7690 C   0  0  0  0  0  0  0  0  0  0  0  0
   43.4010   13.8620   16.7500 S   0  0  0  0  0  0  0  0  0  0  0  0
   43.3150   15.2820   15.8590 C   0  0  0  0  0  0  0  0  0  0  0  0
   42.4680   15.0490   14.7670 C   0  0  0  0  0  0  0  0  0  0  0  0
   41.9770   13.7340   14.7020 C   0  0  0  0  0  0  0  0  0  0  0  0
   40.7910   13.1990   13.2910 Br  0  0  0  0  0  0  0  0  0  0  0  0
   44.1190   16.4780   16.1560 C   0  0  0  0  0  0  0  0  0  0  0  0
   44.8440   16.5040   17.1850 O   0  0  0  0  0  0  0  0  0  0  0  0
   44.1440   17.5570   15.2830 O   0  0  0  0  0  0  0  0  0  0  0  0
   42.0840   16.0070   13.8180 O   0  0  0  0  0  0  0  0  0  0  0  0
   40.9670   16.8710   13.9850 C   0  0  0  0  0  0  0  0  0  0  0  0
   40.4250   17.2770   12.6580 C   0  0  0  0  0  0  0  0  0  0  0  0
   41.1550   17.2180   11.6350 O   0  0  0  0  0  0  0  0  0  0  0  0
   39.1020   17.6810   12.5430 O   0  0  0  0  0  0  0  0  0  0  0  0
   39.1980    9.1050   15.8240 N   0  0  0  0  0  0  0  0  0  0  0  0
   38.9630    7.7680   15.3000 C   0  0  0  0  0  0  0  0  0  0  0  0
   38.6190    7.8420   13.8200 C   0  0  0  0  0  0  0  0  0  0  0  0
   38.3480    6.4380   13.2810 C   0  0  0  0  0  0  0  0  0  0  0  0
   37.3010    5.7300   14.0340 N   0  0  0  0  0  0  0  0  0  0  0  0
   37.5350    5.7320   15.4850 C   0  0  0  0  0  0  0  0  0  0  0  0
   37.8020    7.1300   16.0430 C   0  0  0  0  0  0  0  0  0  0  0  0
   35.7100    6.3210   13.6360 S   0  0  0  0  0  0  0  0  0  0  0  0
   35.7690    7.8130   13.4560 O   0  0  0  0  0  0  0  0  0  0  0  0
   34.7700    6.0070   14.7670 O   0  0  0  0  0  0  0  0  0  0  0  0
   35.0670    5.5930   12.1430 C   0  0  0  0  0  0  0  0  0  0  0  0
   43.5691    8.6433   17.2074 H   0  0  0  0  0  0  0  0  0  0  0  0
   44.0773   11.0363   16.7403 H   0  0  0  0  0  0  0  0  0  0  0  0
   40.0137   11.6408   15.4021 H   0  0  0  0  0  0  0  0  0  0  0  0
   41.2794    7.7438   16.7769 H   0  0  0  0  0  0  0  0  0  0  0  0
   40.1838   16.3463   14.5518 H   0  0  0  0  0  0  0  0  0  0  0  0
   41.2885   17.7703   14.5308 H   0  0  0  0  0  0  0  0  0  0  0  0
   38.3820    9.6986   16.0307 H   0  0  0  0  0  0  0  0  0  0  0  0
   39.8739    7.1665   15.4358 H   0  0  0  0  0  0  0  0  0  0  0  0
   37.7225    8.4647   13.6841 H   0  0  0  0  0  0  0  0  0  0  0  0
   39.4641    8.2846   13.2723 H   0  0  0  0  0  0  0  0  0  0  0  0
   38.0311    6.5199   12.2308 H   0  0  0  0  0  0  0  0  0  0  0  0
   39.2778    5.8592   13.3829 H   0  0  0  0  0  0  0  0  0  0  0  0
   36.6463    5.3187   15.9843 H   0  0  0  0  0  0  0  0  0  0  0  0
   38.4317    5.1240   15.6754 H   0  0  0  0  0  0  0  0  0  0  0  0
   38.0497    7.0552   17.1121 H   0  0  0  0  0  0  0  0  0  0  0  0
   36.9030    7.7505   15.9131 H   0  0  0  0  0  0  0  0  0  0  0  0
   34.3592    4.7916   12.4012 H   0  0  0  0  0  0  0  0  0  0  0  0
   34.5492    6.3635   11.5529 H   0  0  0  0  0  0  0  0  0  0  0  0
   35.8955    5.1743   11.5529 H   0  0  0  0  0  0  0  0  0  0  0  0
  1  2  2  0
  1  6  1  0
  1 32  1  0
  2  3  1  0
  2 33  1  0
  3  4  2  0
  3  7  1  0
  4  5  1  0
  4 34  1  0
  5  6  2  0
  5 21  1  0
  6 35  1  0
  7  8  1  0
  7 11  2  0
  8  9  1  0
  9 13  1  0
  9 10  2  0
 10 11  1  0
 10 16  1  0
 11 12  1  0
 13 14  1  0
 13 15  2  0
 16 17  1  0
 17 18  1  0
 17 36  1  0
 17 37  1  0
 18 19  2  0
 18 20  1  0
 21 22  1  0
 21 38  1  0
 22 27  1  0
 22 23  1  0
 22 39  1  0
 23 24  1  0
 23 40  1  0
 23 41  1  0
 24 25  1  0
 24 42  1  0
 24 43  1  0
 25 26  1  0
 25 28  1  0
 26 27  1  0
 26 44  1  0
 26 45  1  0
 27 46  1  0
 27 47  1  0
 28 30  2  0
 28 29  2  0
 28 31  1  0
 31 48  1  0
 31 49  1  0
 31 50  1  0
M  CHG  2  14  -1  20  -1
M  END
>  <s_m_entry_id>  (1) 
1351

>  <MODEL>  (1) 
1

>  <REMARK>  (1) 
 VINA RESULT:    -8.230      0.000      0.000
 INTER + INTRA:         -12.279
 INTER:                 -12.078
 INTRA:                  -0.200
 UNBOUND:                -0.200
  Name = /scratch/kmzp800/tmpy2_17yk0/tmpcrg3txf2.pdb
  9 active torsions:
  status: ('A' for Active; 'I' for Inactive)
    1  A    between atoms: C3_3  and  C4_4
    2  A    between atoms: C5_6  and  C6_7
    3  A    between atoms: C7_10  and  O3_11
    4  A    between atoms: O3_11  and  C8_12
    5  A    between atoms: C8_12  and  C9_13
    6  A    between atoms: C12_19  and  N1_20
    7  A    between atoms: N1_20  and  C13_21
    8  A    between atoms: N2_24  and  S2_25
    9  A    between atoms: S2_25  and  C16_28
                            x       y       z     vdW  Elec       q    Type
                         _______ _______ _______ _____ _____    ______ ____

>  <TORSDO>  (1) 
F 8

>  <grid_id>  (1) 
ptp1b-prepared

>  <grid_path>  (1) 
ptp1b_vina.pdbqt

>  <grid_filename>  (1) 
ptp1b_vina.pdbqt

>  <docking_score>  (1) 
-8.23

>  <compound_name>  (1) 
lig_23482

>  <index_string>  (1) 
5:0:0

>  <s_m_Source_Path>  (1) 
/projects/mai/users/kmzp800_harry/pmx_colab/docking_jobs/ptp1b/vina_prep

>  <s_m_Source_File>  (1) 
ptp1b_vina_naive_confs.sdf

>  <i_m_Source_File_Index>  (1) 
6

$$$$
