9:0:0
     RDKit          3D

 35 36  0  0  1  0  0  0  0  0999 V2000
   42.3170   12.8280   15.7140 C   0  0  0  0  0  0  0  0  0  0  0  0
   43.3850   13.6940   16.6850 S   0  0  0  0  0  0  0  0  0  0  0  0
   43.2830   15.1470   15.8570 C   0  0  0  0  0  0  0  0  0  0  0  0
   42.4000   14.9920   14.7900 C   0  0  0  0  0  0  0  0  0  0  0  0
   41.8600   13.6820   14.6930 C   0  0  0  0  0  0  0  0  0  0  0  0
   40.7590   13.0760   13.2350 Br  0  0  0  0  0  0  0  0  0  0  0  0
   42.4970    9.2060   16.8460 C   0  0  0  0  0  0  0  0  0  0  0  0
   42.8290   10.5490   16.6580 C   0  0  0  0  0  0  0  0  0  0  0  0
   41.9750   11.4050   15.9500 C   0  0  0  0  0  0  0  0  0  0  0  0
   40.7870   10.8810   15.4180 C   0  0  0  0  0  0  0  0  0  0  0  0
   40.4440    9.5340   15.6010 C   0  0  0  0  0  0  0  0  0  0  0  0
   41.3050    8.7010   16.3200 C   0  0  0  0  0  0  0  0  0  0  0  0
   39.2310    8.9800   15.0700 N   0  0  0  0  0  0  0  0  0  0  0  0
   37.9620    8.9000   15.7310 C   0  0  0  0  0  0  0  0  0  0  0  0
   37.8140    9.3430   16.9030 O   0  0  0  0  0  0  0  0  0  0  0  0
   36.8870    8.3250   15.0550 O   0  0  0  0  0  0  0  0  0  0  0  0
   36.8920    8.1530   13.6450 C   0  0  0  0  0  0  0  0  0  0  0  0
   44.0140   16.3710   16.2250 C   0  0  0  0  0  0  0  0  0  0  0  0
   44.4490   16.5150   17.3970 O   0  0  0  0  0  0  0  0  0  0  0  0
   44.2310   17.3750   15.2910 O   0  0  0  0  0  0  0  0  0  0  0  0
   42.1290   16.0660   13.9300 O   0  0  0  0  0  0  0  0  0  0  0  0
   41.0540   16.9790   14.0920 C   0  0  0  0  0  0  0  0  0  0  0  0
   40.3500   17.1530   12.7950 C   0  0  0  0  0  0  0  0  0  0  0  0
   41.0100   17.2190   11.7260 O   0  0  0  0  0  0  0  0  0  0  0  0
   38.9640   17.1970   12.7580 O   0  0  0  0  0  0  0  0  0  0  0  0
   43.1736    8.5455   17.4081 H   0  0  0  0  0  0  0  0  0  0  0  0
   43.7712   10.9394   17.0702 H   0  0  0  0  0  0  0  0  0  0  0  0
   40.1137   11.5380   14.8479 H   0  0  0  0  0  0  0  0  0  0  0  0
   41.0435    7.6435   16.4726 H   0  0  0  0  0  0  0  0  0  0  0  0
   39.2775    8.6002   14.1137 H   0  0  0  0  0  0  0  0  0  0  0  0
   36.9232    7.0796   13.4067 H   0  0  0  0  0  0  0  0  0  0  0  0
   35.9806    8.5970   13.2182 H   0  0  0  0  0  0  0  0  0  0  0  0
   37.7761    8.6492   13.2182 H   0  0  0  0  0  0  0  0  0  0  0  0
   40.3503   16.5871   14.8411 H   0  0  0  0  0  0  0  0  0  0  0  0
   41.4461   17.9500   14.4287 H   0  0  0  0  0  0  0  0  0  0  0  0
  1  9  1  0
  1  2  1  0
  1  5  2  0
  2  3  1  0
  3 18  1  0
  3  4  2  0
  4  5  1  0
  4 21  1  0
  5  6  1  0
  7  8  2  0
  7 12  1  0
  7 26  1  0
  8  9  1  0
  8 27  1  0
  9 10  2  0
 10 11  1  0
 10 28  1  0
 11 12  2  0
 11 13  1  0
 12 29  1  0
 13 14  1  0
 13 30  1  0
 14 15  2  0
 14 16  1  0
 16 17  1  0
 17 31  1  0
 17 32  1  0
 17 33  1  0
 18 19  1  0
 18 20  2  0
 21 22  1  0
 22 23  1  0
 22 34  1  0
 22 35  1  0
 23 24  2  0
 23 25  1  0
M  CHG  2  19  -1  25  -1
M  END
>  <s_m_entry_id>  (1) 
1355

>  <MODEL>  (1) 
1

>  <REMARK>  (1) 
 VINA RESULT:    -7.486      0.000      0.000
 INTER + INTRA:         -10.516
 INTER:                 -10.549
 INTRA:                   0.033
 UNBOUND:                 0.033
  Name = /scratch/kmzp800/tmpea3i3d42/tmp_f_vogbj.pdb
  8 active torsions:
  status: ('A' for Active; 'I' for Inactive)
    1  A    between atoms: C3_3  and  C4_4
    2  A    between atoms: C5_6  and  C6_7
    3  A    between atoms: C7_10  and  O3_11
    4  A    between atoms: O3_11  and  C8_12
    5  A    between atoms: C8_12  and  C9_13
    6  A    between atoms: C12_19  and  N1_20
    7  A    between atoms: C13_21  and  O7_23
    8  A    between atoms: O7_23  and  C14_24
                            x       y       z     vdW  Elec       q    Type
                         _______ _______ _______ _____ _____    ______ ____

>  <TORSDO>  (1) 
F 7

>  <grid_id>  (1) 
ptp1b-prepared

>  <grid_path>  (1) 
ptp1b_vina.pdbqt

>  <grid_filename>  (1) 
ptp1b_vina.pdbqt

>  <docking_score>  (1) 
-7.486

>  <compound_name>  (1) 
lig_23471

>  <index_string>  (1) 
9:0:0

>  <s_m_Source_Path>  (1) 
/projects/mai/users/kmzp800_harry/pmx_colab/docking_jobs/ptp1b/vina_prep

>  <s_m_Source_File>  (1) 
ptp1b_vina_naive_confs.sdf

>  <i_m_Source_File_Index>  (1) 
10

$$$$
