2:0:0
     RDKit          3D

 40 42  0  0  1  0  0  0  0  0999 V2000
  -14.4607  -14.7554  -27.6612 C   0  0  0  0  0  0  0  0  0  0  0  0
  -15.0434  -15.5957  -26.6830 C   0  0  0  0  0  0  0  0  0  0  0  0
  -14.5508  -13.3643  -27.5541 C   0  0  0  0  0  0  0  0  0  0  0  0
  -15.7670  -15.0162  -25.6145 C   0  0  0  0  0  0  0  0  0  0  0  0
  -14.8482  -16.9868  -26.7458 N   0  0  0  0  0  0  0  0  0  0  0  0
  -15.2587  -12.7995  -26.4921 C   0  0  0  0  0  0  0  0  0  0  0  0
  -15.8800  -13.6135  -25.5199 C   0  0  0  0  0  0  0  0  0  0  0  0
  -16.3739  -15.9464  -24.6034 C   0  0  0  0  0  0  0  0  0  0  0  0
  -16.1304  -17.2435  -24.8121 N   0  0  0  0  0  0  0  0  0  0  0  0
  -17.0519  -15.5745  -23.6522 O   0  0  0  0  0  0  0  0  0  0  0  0
  -15.3662  -17.7725  -25.8475 C   0  0  0  0  0  0  0  0  0  0  0  0
  -15.1968  -19.2477  -25.9371 C   0  0  0  0  0  0  0  0  0  0  0  0
  -15.4332  -20.0786  -24.8226 C   0  0  0  0  0  0  0  0  0  0  0  0
  -15.2138  -21.4626  -24.9051 C   0  0  0  0  0  0  0  0  0  0  0  0
  -14.7615  -22.0417  -26.1077 C   0  0  0  0  0  0  0  0  0  0  0  0
  -14.5531  -21.2079  -27.2237 C   0  0  0  0  0  0  0  0  0  0  0  0
  -14.7801  -19.8329  -27.1442 C   0  0  0  0  0  0  0  0  0  0  0  0
  -14.4700  -23.5336  -26.1821 C   0  0  0  0  0  0  0  0  0  0  0  0
  -14.1757  -23.9629  -27.5029 O   0  0  0  0  0  0  0  0  0  0  0  0
  -13.1995  -23.8428  -25.3742 C   0  0  0  0  0  0  0  0  0  0  0  0
  -15.7061  -24.3314  -25.7075 C   0  0  0  0  0  0  0  0  0  0  0  0
  -13.7089  -15.3357  -28.8311 C   0  0  0  0  0  0  0  0  0  0  0  0
  -14.0888  -12.7218  -28.2921 H   0  0  0  0  0  0  0  0  0  0  0  0
  -15.3170  -11.7242  -26.4183 H   0  0  0  0  0  0  0  0  0  0  0  0
  -16.4191  -13.1636  -24.6977 H   0  0  0  0  0  0  0  0  0  0  0  0
  -16.5814  -17.8892  -24.1753 H   0  0  0  0  0  0  0  0  0  0  0  0
  -15.7515  -19.6661  -23.8765 H   0  0  0  0  0  0  0  0  0  0  0  0
  -15.3672  -22.0643  -24.0216 H   0  0  0  0  0  0  0  0  0  0  0  0
  -14.1774  -21.5713  -28.1609 H   0  0  0  0  0  0  0  0  0  0  0  0
  -14.5880  -19.2270  -28.0189 H   0  0  0  0  0  0  0  0  0  0  0  0
  -14.9481  -23.8485  -28.0337 H   0  0  0  0  0  0  0  0  0  0  0  0
  -12.3882  -23.1792  -25.6753 H   0  0  0  0  0  0  0  0  0  0  0  0
  -12.8413  -24.8591  -25.5372 H   0  0  0  0  0  0  0  0  0  0  0  0
  -13.3483  -23.7020  -24.3041 H   0  0  0  0  0  0  0  0  0  0  0  0
  -16.5872  -24.0028  -26.2607 H   0  0  0  0  0  0  0  0  0  0  0  0
  -15.5978  -25.3916  -25.9391 H   0  0  0  0  0  0  0  0  0  0  0  0
  -15.9037  -24.2237  -24.6425 H   0  0  0  0  0  0  0  0  0  0  0  0
  -13.7107  -14.6548  -29.6812 H   0  0  0  0  0  0  0  0  0  0  0  0
  -12.6844  -15.5719  -28.5770 H   0  0  0  0  0  0  0  0  0  0  0  0
  -14.1904  -16.2590  -29.1384 H   0  0  0  0  0  0  0  0  0  0  0  0
  1  2  2  0
  1  3  1  0
  1 22  1  0
  2  4  1  0
  2  5  1  0
  3  6  2  0
  3 23  1  0
  4  7  2  0
  4  8  1  0
  5 11  2  0
  6  7  1  0
  6 24  1  0
  7 25  1  0
  8  9  1  0
  8 10  2  0
  9 11  1  0
  9 26  1  0
 11 12  1  0
 12 13  2  0
 12 17  1  0
 13 14  1  0
 13 27  1  0
 14 15  2  0
 14 28  1  0
 15 16  1  0
 15 18  1  0
 16 17  2  0
 16 29  1  0
 17 30  1  0
 18 19  1  0
 18 20  1  0
 18 21  1  0
 19 31  1  0
 20 32  1  0
 20 33  1  0
 20 34  1  0
 21 35  1  0
 21 36  1  0
 21 37  1  0
 22 38  1  0
 22 39  1  0
 22 40  1  0
M  END
>  <s_m_entry_id>  (1) 
499

>  <Name>  (1) 
5i

>  <IC50[nM]>  (1) 
1.4

>  <s_m_Source_Path>  (1) 
/projects/mai/users/kmzp800_harry/pmx_colab/docking_jobs/tnks2

>  <s_m_Source_File>  (1) 
tnks2_lig.sdf

>  <i_m_Source_File_Index>  (1) 
21

>  <s_m_job_name>  (1) 
glide-dock_SP_tnks_mcs_fallabck

>  <r_i_docking_score>  (1) 
-10.2533784518301

>  <r_i_glide_gscore>  (1) 
-10.2533784518301

>  <r_i_glide_emodel>  (1) 
-42.0755797482006

>  <index_string>  (1) 
2:0:0

$$$$
